
---------- Begin Simulation Statistics ----------
final_tick                               436094877000                       # Number of ticks from beginning of simulation (restored from checkpoints and never reset)
host_inst_rate                                 286036                       # Simulator instruction rate (inst/s)
host_mem_usage                                 661716                       # Number of bytes of host memory used
host_op_rate                                   334166                       # Simulator op (including micro ops) rate (op/s)
host_seconds                                   349.61                       # Real time elapsed on the host
host_tick_rate                             1247387671                       # Simulator tick rate (ticks/s)
sim_freq                                 1000000000000                       # Frequency of simulated ticks
sim_insts                                   100000000                       # Number of instructions simulated
sim_ops                                     116826593                       # Number of ops (including micro ops) simulated
sim_seconds                                  0.436095                       # Number of seconds simulated
sim_ticks                                436094877000                       # Number of ticks simulated
system.cpu.committedInsts                   100000000                       # Number of instructions committed
system.cpu.committedOps                     116826593                       # Number of ops (including micro ops) committed
system.cpu.cpi                               4.360949                       # CPI: cycles per instruction
system.cpu.discardedOps                        392746                       # Number of ops (including micro ops) which were discarded before commit
system.cpu.idleCycles                       260461006                       # Total number of cycles that the object has spent stopped
system.cpu.ipc                               0.229308                       # IPC: instructions per cycle
system.cpu.numCycles                        436094877                       # number of cpu cycles simulated
system.cpu.numFetchSuspends                         0                       # Number of times Execute suspended instruction fetching
system.cpu.numWorkItemsCompleted                    0                       # number of work items this cpu completed
system.cpu.numWorkItemsStarted                      0                       # number of work items this cpu started
system.cpu.op_class_0::No_OpClass                   0      0.00%      0.00% # Class of committed instruction
system.cpu.op_class_0::IntAlu                65231396     55.84%     55.84% # Class of committed instruction
system.cpu.op_class_0::IntMult                 602374      0.52%     56.35% # Class of committed instruction
system.cpu.op_class_0::IntDiv                       0      0.00%     56.35% # Class of committed instruction
system.cpu.op_class_0::FloatAdd                     0      0.00%     56.35% # Class of committed instruction
system.cpu.op_class_0::FloatCmp                     0      0.00%     56.35% # Class of committed instruction
system.cpu.op_class_0::FloatCvt                     0      0.00%     56.35% # Class of committed instruction
system.cpu.op_class_0::FloatMult                    0      0.00%     56.35% # Class of committed instruction
system.cpu.op_class_0::FloatMultAcc                 0      0.00%     56.35% # Class of committed instruction
system.cpu.op_class_0::FloatDiv                     0      0.00%     56.35% # Class of committed instruction
system.cpu.op_class_0::FloatMisc                    0      0.00%     56.35% # Class of committed instruction
system.cpu.op_class_0::FloatSqrt                    0      0.00%     56.35% # Class of committed instruction
system.cpu.op_class_0::SimdAdd                    380      0.00%     56.35% # Class of committed instruction
system.cpu.op_class_0::SimdAddAcc                   0      0.00%     56.35% # Class of committed instruction
system.cpu.op_class_0::SimdAlu                    470      0.00%     56.35% # Class of committed instruction
system.cpu.op_class_0::SimdCmp                    382      0.00%     56.35% # Class of committed instruction
system.cpu.op_class_0::SimdCvt                      0      0.00%     56.35% # Class of committed instruction
system.cpu.op_class_0::SimdMisc                    53      0.00%     56.35% # Class of committed instruction
system.cpu.op_class_0::SimdMult                     0      0.00%     56.35% # Class of committed instruction
system.cpu.op_class_0::SimdMultAcc                  0      0.00%     56.35% # Class of committed instruction
system.cpu.op_class_0::SimdShift                    0      0.00%     56.35% # Class of committed instruction
system.cpu.op_class_0::SimdShiftAcc                 0      0.00%     56.35% # Class of committed instruction
system.cpu.op_class_0::SimdDiv                      0      0.00%     56.35% # Class of committed instruction
system.cpu.op_class_0::SimdSqrt                     0      0.00%     56.35% # Class of committed instruction
system.cpu.op_class_0::SimdFloatAdd            783705      0.67%     57.02% # Class of committed instruction
system.cpu.op_class_0::SimdFloatAlu                 0      0.00%     57.02% # Class of committed instruction
system.cpu.op_class_0::SimdFloatCmp            769156      0.66%     57.68% # Class of committed instruction
system.cpu.op_class_0::SimdFloatCvt            311548      0.27%     57.95% # Class of committed instruction
system.cpu.op_class_0::SimdFloatDiv            152211      0.13%     58.08% # Class of committed instruction
system.cpu.op_class_0::SimdFloatMisc           950762      0.81%     58.89% # Class of committed instruction
system.cpu.op_class_0::SimdFloatMult            86008      0.07%     58.97% # Class of committed instruction
system.cpu.op_class_0::SimdFloatMultAcc         12802      0.01%     58.98% # Class of committed instruction
system.cpu.op_class_0::SimdFloatSqrt                0      0.00%     58.98% # Class of committed instruction
system.cpu.op_class_0::SimdReduceAdd                0      0.00%     58.98% # Class of committed instruction
system.cpu.op_class_0::SimdReduceAlu                0      0.00%     58.98% # Class of committed instruction
system.cpu.op_class_0::SimdReduceCmp                0      0.00%     58.98% # Class of committed instruction
system.cpu.op_class_0::SimdFloatReduceAdd            0      0.00%     58.98% # Class of committed instruction
system.cpu.op_class_0::SimdFloatReduceCmp            0      0.00%     58.98% # Class of committed instruction
system.cpu.op_class_0::SimdAes                      0      0.00%     58.98% # Class of committed instruction
system.cpu.op_class_0::SimdAesMix                   0      0.00%     58.98% # Class of committed instruction
system.cpu.op_class_0::SimdSha1Hash                 0      0.00%     58.98% # Class of committed instruction
system.cpu.op_class_0::SimdSha1Hash2                0      0.00%     58.98% # Class of committed instruction
system.cpu.op_class_0::SimdSha256Hash               0      0.00%     58.98% # Class of committed instruction
system.cpu.op_class_0::SimdSha256Hash2              0      0.00%     58.98% # Class of committed instruction
system.cpu.op_class_0::SimdShaSigma2                0      0.00%     58.98% # Class of committed instruction
system.cpu.op_class_0::SimdShaSigma3                0      0.00%     58.98% # Class of committed instruction
system.cpu.op_class_0::SimdPredAlu                  0      0.00%     58.98% # Class of committed instruction
system.cpu.op_class_0::MemRead               30319972     25.95%     84.93% # Class of committed instruction
system.cpu.op_class_0::MemWrite              17605374     15.07%    100.00% # Class of committed instruction
system.cpu.op_class_0::FloatMemRead                 0      0.00%    100.00% # Class of committed instruction
system.cpu.op_class_0::FloatMemWrite                0      0.00%    100.00% # Class of committed instruction
system.cpu.op_class_0::IprAccess                    0      0.00%    100.00% # Class of committed instruction
system.cpu.op_class_0::InstPrefetch                 0      0.00%    100.00% # Class of committed instruction
system.cpu.op_class_0::total                116826593                       # Class of committed instruction
system.cpu.tickCycles                       175633871                       # Number of cycles that the object actually ticked
system.cpu.workload.numSyscalls                    33                       # Number of system calls
system.membus.snoop_filter.hit_multi_requests            0                       # Number of requests hitting in the snoop filter with multiple (>1) holders of the requested data.
system.membus.snoop_filter.hit_multi_snoops            0                       # Number of snoops hitting in the snoop filter with multiple (>1) holders of the requested data.
system.membus.snoop_filter.hit_single_requests           28                       # Number of requests hitting in the snoop filter with a single holder of the requested data.
system.membus.snoop_filter.hit_single_snoops            0                       # Number of snoops hitting in the snoop filter with a single holder of the requested data.
system.membus.snoop_filter.tot_requests          5625                       # Total number of requests made to the snoop filter.
system.membus.snoop_filter.tot_snoops               0                       # Total number of snoops made to the snoop filter.
system.tol2bus.snoop_filter.hit_multi_requests       588767                       # Number of requests hitting in the snoop filter with multiple (>1) holders of the requested data.
system.tol2bus.snoop_filter.hit_multi_snoops            0                       # Number of snoops hitting in the snoop filter with multiple (>1) holders of the requested data.
system.tol2bus.snoop_filter.hit_single_requests     10945227                       # Number of requests hitting in the snoop filter with a single holder of the requested data.
system.tol2bus.snoop_filter.hit_single_snoops            0                       # Number of snoops hitting in the snoop filter with a single holder of the requested data.
system.tol2bus.snoop_filter.tot_requests     21890969                       # Total number of requests made to the snoop filter.
system.tol2bus.snoop_filter.tot_snoops              0                       # Total number of snoops made to the snoop filter.
system.clk_domain.clock                          1000                       # Clock period in ticks
system.cpu.branchPred.lookups                 5744576                       # Number of BP lookups
system.cpu.branchPred.condPredicted           4941171                       # Number of conditional branches predicted
system.cpu.branchPred.condIncorrect            188427                       # Number of conditional branches incorrect
system.cpu.branchPred.BTBLookups              3629519                       # Number of BTB lookups
system.cpu.branchPred.BTBHits                 3625485                       # Number of BTB hits
system.cpu.branchPred.BTBHitPct             99.888856                       # BTB Hit Percentage
system.cpu.branchPred.RASUsed                  240738                       # Number of times the RAS was used to get a target.
system.cpu.branchPred.RASIncorrect                  2                       # Number of incorrect RAS predictions.
system.cpu.branchPred.indirectLookups          151330                       # Number of indirect predictor lookups.
system.cpu.branchPred.indirectHits                239                       # Number of indirect target hits.
system.cpu.branchPred.indirectMisses           151091                       # Number of indirect misses.
system.cpu.branchPred.indirectMispredicted          198                       # Number of mispredicted indirect branches.
system.cpu.dcache.demand_hits::.cpu.data     46865607                       # number of demand (read+write) hits
system.cpu.dcache.demand_hits::total         46865607                       # number of demand (read+write) hits
system.cpu.dcache.overall_hits::.cpu.data     46890464                       # number of overall hits
system.cpu.dcache.overall_hits::total        46890464                       # number of overall hits
system.cpu.dcache.demand_misses::.cpu.data       912165                       # number of demand (read+write) misses
system.cpu.dcache.demand_misses::total         912165                       # number of demand (read+write) misses
system.cpu.dcache.overall_misses::.cpu.data       912525                       # number of overall misses
system.cpu.dcache.overall_misses::total        912525                       # number of overall misses
system.cpu.dcache.demand_miss_latency::.cpu.data  26131359000                       # number of demand (read+write) miss cycles
system.cpu.dcache.demand_miss_latency::total  26131359000                       # number of demand (read+write) miss cycles
system.cpu.dcache.overall_miss_latency::.cpu.data  26131359000                       # number of overall miss cycles
system.cpu.dcache.overall_miss_latency::total  26131359000                       # number of overall miss cycles
system.cpu.dcache.demand_accesses::.cpu.data     47777772                       # number of demand (read+write) accesses
system.cpu.dcache.demand_accesses::total     47777772                       # number of demand (read+write) accesses
system.cpu.dcache.overall_accesses::.cpu.data     47802989                       # number of overall (read+write) accesses
system.cpu.dcache.overall_accesses::total     47802989                       # number of overall (read+write) accesses
system.cpu.dcache.demand_miss_rate::.cpu.data     0.019092                       # miss rate for demand accesses
system.cpu.dcache.demand_miss_rate::total     0.019092                       # miss rate for demand accesses
system.cpu.dcache.overall_miss_rate::.cpu.data     0.019089                       # miss rate for overall accesses
system.cpu.dcache.overall_miss_rate::total     0.019089                       # miss rate for overall accesses
system.cpu.dcache.demand_avg_miss_latency::.cpu.data 28647.622963                       # average overall miss latency
system.cpu.dcache.demand_avg_miss_latency::total 28647.622963                       # average overall miss latency
system.cpu.dcache.overall_avg_miss_latency::.cpu.data 28636.321197                       # average overall miss latency
system.cpu.dcache.overall_avg_miss_latency::total 28636.321197                       # average overall miss latency
system.cpu.dcache.blocked_cycles::no_mshrs          112                       # number of cycles access was blocked
system.cpu.dcache.blocked_cycles::no_targets            0                       # number of cycles access was blocked
system.cpu.dcache.blocked::no_mshrs                 2                       # number of cycles access was blocked
system.cpu.dcache.blocked::no_targets               0                       # number of cycles access was blocked
system.cpu.dcache.avg_blocked_cycles::no_mshrs           56                       # average number of cycles each access was blocked
system.cpu.dcache.avg_blocked_cycles::no_targets          nan                       # average number of cycles each access was blocked
system.cpu.dcache.writebacks::.writebacks       729473                       # number of writebacks
system.cpu.dcache.writebacks::total            729473                       # number of writebacks
system.cpu.dcache.demand_mshr_hits::.cpu.data       176773                       # number of demand (read+write) MSHR hits
system.cpu.dcache.demand_mshr_hits::total       176773                       # number of demand (read+write) MSHR hits
system.cpu.dcache.overall_mshr_hits::.cpu.data       176773                       # number of overall MSHR hits
system.cpu.dcache.overall_mshr_hits::total       176773                       # number of overall MSHR hits
system.cpu.dcache.demand_mshr_misses::.cpu.data       735392                       # number of demand (read+write) MSHR misses
system.cpu.dcache.demand_mshr_misses::total       735392                       # number of demand (read+write) MSHR misses
system.cpu.dcache.overall_mshr_misses::.cpu.data       735747                       # number of overall MSHR misses
system.cpu.dcache.overall_mshr_misses::total       735747                       # number of overall MSHR misses
system.cpu.dcache.demand_mshr_miss_latency::.cpu.data  21430772000                       # number of demand (read+write) MSHR miss cycles
system.cpu.dcache.demand_mshr_miss_latency::total  21430772000                       # number of demand (read+write) MSHR miss cycles
system.cpu.dcache.overall_mshr_miss_latency::.cpu.data  21446625000                       # number of overall MSHR miss cycles
system.cpu.dcache.overall_mshr_miss_latency::total  21446625000                       # number of overall MSHR miss cycles
system.cpu.dcache.demand_mshr_miss_rate::.cpu.data     0.015392                       # mshr miss rate for demand accesses
system.cpu.dcache.demand_mshr_miss_rate::total     0.015392                       # mshr miss rate for demand accesses
system.cpu.dcache.overall_mshr_miss_rate::.cpu.data     0.015391                       # mshr miss rate for overall accesses
system.cpu.dcache.overall_mshr_miss_rate::total     0.015391                       # mshr miss rate for overall accesses
system.cpu.dcache.demand_avg_mshr_miss_latency::.cpu.data 29141.970541                       # average overall mshr miss latency
system.cpu.dcache.demand_avg_mshr_miss_latency::total 29141.970541                       # average overall mshr miss latency
system.cpu.dcache.overall_avg_mshr_miss_latency::.cpu.data 29149.456267                       # average overall mshr miss latency
system.cpu.dcache.overall_avg_mshr_miss_latency::total 29149.456267                       # average overall mshr miss latency
system.cpu.dcache.replacements                 735235                       # number of replacements
system.cpu.dcache.ReadReq_hits::.cpu.data     29778842                       # number of ReadReq hits
system.cpu.dcache.ReadReq_hits::total        29778842                       # number of ReadReq hits
system.cpu.dcache.ReadReq_misses::.cpu.data       524687                       # number of ReadReq misses
system.cpu.dcache.ReadReq_misses::total        524687                       # number of ReadReq misses
system.cpu.dcache.ReadReq_miss_latency::.cpu.data  16534387000                       # number of ReadReq miss cycles
system.cpu.dcache.ReadReq_miss_latency::total  16534387000                       # number of ReadReq miss cycles
system.cpu.dcache.ReadReq_accesses::.cpu.data     30303529                       # number of ReadReq accesses(hits+misses)
system.cpu.dcache.ReadReq_accesses::total     30303529                       # number of ReadReq accesses(hits+misses)
system.cpu.dcache.ReadReq_miss_rate::.cpu.data     0.017314                       # miss rate for ReadReq accesses
system.cpu.dcache.ReadReq_miss_rate::total     0.017314                       # miss rate for ReadReq accesses
system.cpu.dcache.ReadReq_avg_miss_latency::.cpu.data 31512.858142                       # average ReadReq miss latency
system.cpu.dcache.ReadReq_avg_miss_latency::total 31512.858142                       # average ReadReq miss latency
system.cpu.dcache.ReadReq_mshr_hits::.cpu.data        12972                       # number of ReadReq MSHR hits
system.cpu.dcache.ReadReq_mshr_hits::total        12972                       # number of ReadReq MSHR hits
system.cpu.dcache.ReadReq_mshr_misses::.cpu.data       511715                       # number of ReadReq MSHR misses
system.cpu.dcache.ReadReq_mshr_misses::total       511715                       # number of ReadReq MSHR misses
system.cpu.dcache.ReadReq_mshr_miss_latency::.cpu.data  14992468000                       # number of ReadReq MSHR miss cycles
system.cpu.dcache.ReadReq_mshr_miss_latency::total  14992468000                       # number of ReadReq MSHR miss cycles
system.cpu.dcache.ReadReq_mshr_miss_rate::.cpu.data     0.016886                       # mshr miss rate for ReadReq accesses
system.cpu.dcache.ReadReq_mshr_miss_rate::total     0.016886                       # mshr miss rate for ReadReq accesses
system.cpu.dcache.ReadReq_avg_mshr_miss_latency::.cpu.data 29298.472783                       # average ReadReq mshr miss latency
system.cpu.dcache.ReadReq_avg_mshr_miss_latency::total 29298.472783                       # average ReadReq mshr miss latency
system.cpu.dcache.WriteReq_hits::.cpu.data     17086765                       # number of WriteReq hits
system.cpu.dcache.WriteReq_hits::total       17086765                       # number of WriteReq hits
system.cpu.dcache.WriteReq_misses::.cpu.data       387478                       # number of WriteReq misses
system.cpu.dcache.WriteReq_misses::total       387478                       # number of WriteReq misses
system.cpu.dcache.WriteReq_miss_latency::.cpu.data   9596972000                       # number of WriteReq miss cycles
system.cpu.dcache.WriteReq_miss_latency::total   9596972000                       # number of WriteReq miss cycles
system.cpu.dcache.WriteReq_accesses::.cpu.data     17474243                       # number of WriteReq accesses(hits+misses)
system.cpu.dcache.WriteReq_accesses::total     17474243                       # number of WriteReq accesses(hits+misses)
system.cpu.dcache.WriteReq_miss_rate::.cpu.data     0.022174                       # miss rate for WriteReq accesses
system.cpu.dcache.WriteReq_miss_rate::total     0.022174                       # miss rate for WriteReq accesses
system.cpu.dcache.WriteReq_avg_miss_latency::.cpu.data 24767.785526                       # average WriteReq miss latency
system.cpu.dcache.WriteReq_avg_miss_latency::total 24767.785526                       # average WriteReq miss latency
system.cpu.dcache.WriteReq_mshr_hits::.cpu.data       163801                       # number of WriteReq MSHR hits
system.cpu.dcache.WriteReq_mshr_hits::total       163801                       # number of WriteReq MSHR hits
system.cpu.dcache.WriteReq_mshr_misses::.cpu.data       223677                       # number of WriteReq MSHR misses
system.cpu.dcache.WriteReq_mshr_misses::total       223677                       # number of WriteReq MSHR misses
system.cpu.dcache.WriteReq_mshr_miss_latency::.cpu.data   6438304000                       # number of WriteReq MSHR miss cycles
system.cpu.dcache.WriteReq_mshr_miss_latency::total   6438304000                       # number of WriteReq MSHR miss cycles
system.cpu.dcache.WriteReq_mshr_miss_rate::.cpu.data     0.012800                       # mshr miss rate for WriteReq accesses
system.cpu.dcache.WriteReq_mshr_miss_rate::total     0.012800                       # mshr miss rate for WriteReq accesses
system.cpu.dcache.WriteReq_avg_mshr_miss_latency::.cpu.data 28783.933976                       # average WriteReq mshr miss latency
system.cpu.dcache.WriteReq_avg_mshr_miss_latency::total 28783.933976                       # average WriteReq mshr miss latency
system.cpu.dcache.SoftPFReq_hits::.cpu.data        24857                       # number of SoftPFReq hits
system.cpu.dcache.SoftPFReq_hits::total         24857                       # number of SoftPFReq hits
system.cpu.dcache.SoftPFReq_misses::.cpu.data          360                       # number of SoftPFReq misses
system.cpu.dcache.SoftPFReq_misses::total          360                       # number of SoftPFReq misses
system.cpu.dcache.SoftPFReq_accesses::.cpu.data        25217                       # number of SoftPFReq accesses(hits+misses)
system.cpu.dcache.SoftPFReq_accesses::total        25217                       # number of SoftPFReq accesses(hits+misses)
system.cpu.dcache.SoftPFReq_miss_rate::.cpu.data     0.014276                       # miss rate for SoftPFReq accesses
system.cpu.dcache.SoftPFReq_miss_rate::total     0.014276                       # miss rate for SoftPFReq accesses
system.cpu.dcache.SoftPFReq_mshr_misses::.cpu.data          355                       # number of SoftPFReq MSHR misses
system.cpu.dcache.SoftPFReq_mshr_misses::total          355                       # number of SoftPFReq MSHR misses
system.cpu.dcache.SoftPFReq_mshr_miss_latency::.cpu.data     15853000                       # number of SoftPFReq MSHR miss cycles
system.cpu.dcache.SoftPFReq_mshr_miss_latency::total     15853000                       # number of SoftPFReq MSHR miss cycles
system.cpu.dcache.SoftPFReq_mshr_miss_rate::.cpu.data     0.014078                       # mshr miss rate for SoftPFReq accesses
system.cpu.dcache.SoftPFReq_mshr_miss_rate::total     0.014078                       # mshr miss rate for SoftPFReq accesses
system.cpu.dcache.SoftPFReq_avg_mshr_miss_latency::.cpu.data 44656.338028                       # average SoftPFReq mshr miss latency
system.cpu.dcache.SoftPFReq_avg_mshr_miss_latency::total 44656.338028                       # average SoftPFReq mshr miss latency
system.cpu.dcache.LoadLockedReq_hits::.cpu.data          166                       # number of LoadLockedReq hits
system.cpu.dcache.LoadLockedReq_hits::total          166                       # number of LoadLockedReq hits
system.cpu.dcache.LoadLockedReq_accesses::.cpu.data          166                       # number of LoadLockedReq accesses(hits+misses)
system.cpu.dcache.LoadLockedReq_accesses::total          166                       # number of LoadLockedReq accesses(hits+misses)
system.cpu.dcache.StoreCondReq_hits::.cpu.data          166                       # number of StoreCondReq hits
system.cpu.dcache.StoreCondReq_hits::total          166                       # number of StoreCondReq hits
system.cpu.dcache.StoreCondReq_accesses::.cpu.data          166                       # number of StoreCondReq accesses(hits+misses)
system.cpu.dcache.StoreCondReq_accesses::total          166                       # number of StoreCondReq accesses(hits+misses)
system.cpu.dcache.power_state.pwrStateResidencyTicks::UNDEFINED 436094877000                       # Cumulative time (in ticks) in various power states
system.cpu.dcache.tags.tagsinuse           510.594655                       # Cycle average of tags in use
system.cpu.dcache.tags.total_refs            47626543                       # Total number of references to valid blocks.
system.cpu.dcache.tags.sampled_refs            735747                       # Sample count of references to valid blocks.
system.cpu.dcache.tags.avg_refs             64.732229                       # Average number of references to valid blocks.
system.cpu.dcache.tags.warmup_cycle            223000                       # Cycle when the warmup percentage was hit.
system.cpu.dcache.tags.occ_blocks::.cpu.data   510.594655                       # Average occupied blocks per requestor
system.cpu.dcache.tags.occ_percent::.cpu.data     0.997255                       # Average percentage of cache occupancy
system.cpu.dcache.tags.occ_percent::total     0.997255                       # Average percentage of cache occupancy
system.cpu.dcache.tags.occ_task_id_blocks::1024          512                       # Occupied blocks per task id
system.cpu.dcache.tags.age_task_id_blocks_1024::0           14                       # Occupied blocks per task id
system.cpu.dcache.tags.age_task_id_blocks_1024::1           50                       # Occupied blocks per task id
system.cpu.dcache.tags.age_task_id_blocks_1024::2          138                       # Occupied blocks per task id
system.cpu.dcache.tags.age_task_id_blocks_1024::3          247                       # Occupied blocks per task id
system.cpu.dcache.tags.age_task_id_blocks_1024::4           63                       # Occupied blocks per task id
system.cpu.dcache.tags.occ_task_id_percent::1024            1                       # Percentage of cache occupancy per task id
system.cpu.dcache.tags.tag_accesses          48539068                       # Number of tag accesses
system.cpu.dcache.tags.data_accesses         48539068                       # Number of data accesses
system.cpu.dcache.tags.power_state.pwrStateResidencyTicks::UNDEFINED 436094877000                       # Cumulative time (in ticks) in various power states
system.cpu.dtb.instHits                             0                       # ITB inst hits
system.cpu.dtb.instMisses                           0                       # ITB inst misses
system.cpu.dtb.readHits                             0                       # DTB read hits
system.cpu.dtb.readMisses                           0                       # DTB read misses
system.cpu.dtb.writeHits                            0                       # DTB write hits
system.cpu.dtb.writeMisses                          0                       # DTB write misses
system.cpu.dtb.inserts                              0                       # Number of times an entry is inserted into the TLB
system.cpu.dtb.flushTlb                             0                       # Number of times complete TLB was flushed
system.cpu.dtb.flushTlbMva                          0                       # Number of times TLB was flushed by MVA
system.cpu.dtb.flushTlbMvaAsid                      0                       # Number of times TLB was flushed by MVA & ASID
system.cpu.dtb.flushTlbAsid                         0                       # Number of times TLB was flushed by ASID
system.cpu.dtb.flushedEntries                       0                       # Number of entries that have been flushed from TLB
system.cpu.dtb.alignFaults                          0                       # Number of TLB faults due to alignment restrictions
system.cpu.dtb.prefetchFaults                       0                       # Number of TLB faults due to prefetch
system.cpu.dtb.domainFaults                         0                       # Number of TLB faults due to domain restrictions
system.cpu.dtb.permsFaults                          0                       # Number of TLB faults due to permissions restrictions
system.cpu.dtb.readAccesses                         0                       # DTB read accesses
system.cpu.dtb.writeAccesses                        0                       # DTB write accesses
system.cpu.dtb.instAccesses                         0                       # ITB inst accesses
system.cpu.dtb.hits                                 0                       # Total TLB (inst and data) hits
system.cpu.dtb.misses                               0                       # Total TLB (inst and data) misses
system.cpu.dtb.accesses                             0                       # Total TLB (inst and data) accesses
system.cpu.dtb.stage2_mmu.stage2_tlb.instHits            0                       # ITB inst hits
system.cpu.dtb.stage2_mmu.stage2_tlb.instMisses            0                       # ITB inst misses
system.cpu.dtb.stage2_mmu.stage2_tlb.readHits            0                       # DTB read hits
system.cpu.dtb.stage2_mmu.stage2_tlb.readMisses            0                       # DTB read misses
system.cpu.dtb.stage2_mmu.stage2_tlb.writeHits            0                       # DTB write hits
system.cpu.dtb.stage2_mmu.stage2_tlb.writeMisses            0                       # DTB write misses
system.cpu.dtb.stage2_mmu.stage2_tlb.inserts            0                       # Number of times an entry is inserted into the TLB
system.cpu.dtb.stage2_mmu.stage2_tlb.flushTlb            0                       # Number of times complete TLB was flushed
system.cpu.dtb.stage2_mmu.stage2_tlb.flushTlbMva            0                       # Number of times TLB was flushed by MVA
system.cpu.dtb.stage2_mmu.stage2_tlb.flushTlbMvaAsid            0                       # Number of times TLB was flushed by MVA & ASID
system.cpu.dtb.stage2_mmu.stage2_tlb.flushTlbAsid            0                       # Number of times TLB was flushed by ASID
system.cpu.dtb.stage2_mmu.stage2_tlb.flushedEntries            0                       # Number of entries that have been flushed from TLB
system.cpu.dtb.stage2_mmu.stage2_tlb.alignFaults            0                       # Number of TLB faults due to alignment restrictions
system.cpu.dtb.stage2_mmu.stage2_tlb.prefetchFaults            0                       # Number of TLB faults due to prefetch
system.cpu.dtb.stage2_mmu.stage2_tlb.domainFaults            0                       # Number of TLB faults due to domain restrictions
system.cpu.dtb.stage2_mmu.stage2_tlb.permsFaults            0                       # Number of TLB faults due to permissions restrictions
system.cpu.dtb.stage2_mmu.stage2_tlb.readAccesses            0                       # DTB read accesses
system.cpu.dtb.stage2_mmu.stage2_tlb.writeAccesses            0                       # DTB write accesses
system.cpu.dtb.stage2_mmu.stage2_tlb.instAccesses            0                       # ITB inst accesses
system.cpu.dtb.stage2_mmu.stage2_tlb.hits            0                       # Total TLB (inst and data) hits
system.cpu.dtb.stage2_mmu.stage2_tlb.misses            0                       # Total TLB (inst and data) misses
system.cpu.dtb.stage2_mmu.stage2_tlb.accesses            0                       # Total TLB (inst and data) accesses
system.cpu.dtb.stage2_mmu.stage2_tlb.walker.walks            0                       # Table walker walks requested
system.cpu.dtb.stage2_mmu.stage2_tlb.walker.requestOrigin_Requested::Data            0                       # Table walker requests started/completed, data/inst
system.cpu.dtb.stage2_mmu.stage2_tlb.walker.requestOrigin_Requested::Inst            0                       # Table walker requests started/completed, data/inst
system.cpu.dtb.stage2_mmu.stage2_tlb.walker.requestOrigin_Requested::total            0                       # Table walker requests started/completed, data/inst
system.cpu.dtb.stage2_mmu.stage2_tlb.walker.requestOrigin_Completed::Data            0                       # Table walker requests started/completed, data/inst
system.cpu.dtb.stage2_mmu.stage2_tlb.walker.requestOrigin_Completed::Inst            0                       # Table walker requests started/completed, data/inst
system.cpu.dtb.stage2_mmu.stage2_tlb.walker.requestOrigin_Completed::total            0                       # Table walker requests started/completed, data/inst
system.cpu.dtb.stage2_mmu.stage2_tlb.walker.requestOrigin::total            0                       # Table walker requests started/completed, data/inst
system.cpu.dtb.stage2_mmu.stage2_tlb.walker.power_state.pwrStateResidencyTicks::UNDEFINED 436094877000                       # Cumulative time (in ticks) in various power states
system.cpu.dtb.walker.walks                         0                       # Table walker walks requested
system.cpu.dtb.walker.requestOrigin_Requested::Data            0                       # Table walker requests started/completed, data/inst
system.cpu.dtb.walker.requestOrigin_Requested::Inst            0                       # Table walker requests started/completed, data/inst
system.cpu.dtb.walker.requestOrigin_Requested::total            0                       # Table walker requests started/completed, data/inst
system.cpu.dtb.walker.requestOrigin_Completed::Data            0                       # Table walker requests started/completed, data/inst
system.cpu.dtb.walker.requestOrigin_Completed::Inst            0                       # Table walker requests started/completed, data/inst
system.cpu.dtb.walker.requestOrigin_Completed::total            0                       # Table walker requests started/completed, data/inst
system.cpu.dtb.walker.requestOrigin::total            0                       # Table walker requests started/completed, data/inst
system.cpu.dtb.walker.power_state.pwrStateResidencyTicks::UNDEFINED 436094877000                       # Cumulative time (in ticks) in various power states
system.cpu.fetch2.intInstructions            37155331                       # Number of integer instructions successfully decoded
system.cpu.fetch2.fpInstructions                    0                       # Number of floating point instructions successfully decoded
system.cpu.fetch2.vecInstructions                   0                       # Number of SIMD instructions successfully decoded
system.cpu.fetch2.loadInstructions           17175661                       # Number of memory load instructions successfully decoded
system.cpu.fetch2.storeInstructions          14132238                       # Number of memory store instructions successfully decoded
system.cpu.fetch2.amoInstructions                   0                       # Number of memory atomic instructions successfully decoded
system.cpu.icache.demand_hits::.cpu.inst      2710999                       # number of demand (read+write) hits
system.cpu.icache.demand_hits::total          2710999                       # number of demand (read+write) hits
system.cpu.icache.overall_hits::.cpu.inst      2710999                       # number of overall hits
system.cpu.icache.overall_hits::total         2710999                       # number of overall hits
system.cpu.icache.demand_misses::.cpu.inst     10209995                       # number of demand (read+write) misses
system.cpu.icache.demand_misses::total       10209995                       # number of demand (read+write) misses
system.cpu.icache.overall_misses::.cpu.inst     10209995                       # number of overall misses
system.cpu.icache.overall_misses::total      10209995                       # number of overall misses
system.cpu.icache.demand_miss_latency::.cpu.inst 396739338000                       # number of demand (read+write) miss cycles
system.cpu.icache.demand_miss_latency::total 396739338000                       # number of demand (read+write) miss cycles
system.cpu.icache.overall_miss_latency::.cpu.inst 396739338000                       # number of overall miss cycles
system.cpu.icache.overall_miss_latency::total 396739338000                       # number of overall miss cycles
system.cpu.icache.demand_accesses::.cpu.inst     12920994                       # number of demand (read+write) accesses
system.cpu.icache.demand_accesses::total     12920994                       # number of demand (read+write) accesses
system.cpu.icache.overall_accesses::.cpu.inst     12920994                       # number of overall (read+write) accesses
system.cpu.icache.overall_accesses::total     12920994                       # number of overall (read+write) accesses
system.cpu.icache.demand_miss_rate::.cpu.inst     0.790186                       # miss rate for demand accesses
system.cpu.icache.demand_miss_rate::total     0.790186                       # miss rate for demand accesses
system.cpu.icache.overall_miss_rate::.cpu.inst     0.790186                       # miss rate for overall accesses
system.cpu.icache.overall_miss_rate::total     0.790186                       # miss rate for overall accesses
system.cpu.icache.demand_avg_miss_latency::.cpu.inst 38857.936561                       # average overall miss latency
system.cpu.icache.demand_avg_miss_latency::total 38857.936561                       # average overall miss latency
system.cpu.icache.overall_avg_miss_latency::.cpu.inst 38857.936561                       # average overall miss latency
system.cpu.icache.overall_avg_miss_latency::total 38857.936561                       # average overall miss latency
system.cpu.icache.blocked_cycles::no_mshrs            0                       # number of cycles access was blocked
system.cpu.icache.blocked_cycles::no_targets            0                       # number of cycles access was blocked
system.cpu.icache.blocked::no_mshrs                 0                       # number of cycles access was blocked
system.cpu.icache.blocked::no_targets               0                       # number of cycles access was blocked
system.cpu.icache.avg_blocked_cycles::no_mshrs          nan                       # average number of cycles each access was blocked
system.cpu.icache.avg_blocked_cycles::no_targets          nan                       # average number of cycles each access was blocked
system.cpu.icache.writebacks::.writebacks     10209993                       # number of writebacks
system.cpu.icache.writebacks::total          10209993                       # number of writebacks
system.cpu.icache.demand_mshr_misses::.cpu.inst     10209995                       # number of demand (read+write) MSHR misses
system.cpu.icache.demand_mshr_misses::total     10209995                       # number of demand (read+write) MSHR misses
system.cpu.icache.overall_mshr_misses::.cpu.inst     10209995                       # number of overall MSHR misses
system.cpu.icache.overall_mshr_misses::total     10209995                       # number of overall MSHR misses
system.cpu.icache.demand_mshr_miss_latency::.cpu.inst 376319348000                       # number of demand (read+write) MSHR miss cycles
system.cpu.icache.demand_mshr_miss_latency::total 376319348000                       # number of demand (read+write) MSHR miss cycles
system.cpu.icache.overall_mshr_miss_latency::.cpu.inst 376319348000                       # number of overall MSHR miss cycles
system.cpu.icache.overall_mshr_miss_latency::total 376319348000                       # number of overall MSHR miss cycles
system.cpu.icache.demand_mshr_miss_rate::.cpu.inst     0.790186                       # mshr miss rate for demand accesses
system.cpu.icache.demand_mshr_miss_rate::total     0.790186                       # mshr miss rate for demand accesses
system.cpu.icache.overall_mshr_miss_rate::.cpu.inst     0.790186                       # mshr miss rate for overall accesses
system.cpu.icache.overall_mshr_miss_rate::total     0.790186                       # mshr miss rate for overall accesses
system.cpu.icache.demand_avg_mshr_miss_latency::.cpu.inst 36857.936561                       # average overall mshr miss latency
system.cpu.icache.demand_avg_mshr_miss_latency::total 36857.936561                       # average overall mshr miss latency
system.cpu.icache.overall_avg_mshr_miss_latency::.cpu.inst 36857.936561                       # average overall mshr miss latency
system.cpu.icache.overall_avg_mshr_miss_latency::total 36857.936561                       # average overall mshr miss latency
system.cpu.icache.replacements               10209993                       # number of replacements
system.cpu.icache.ReadReq_hits::.cpu.inst      2710999                       # number of ReadReq hits
system.cpu.icache.ReadReq_hits::total         2710999                       # number of ReadReq hits
system.cpu.icache.ReadReq_misses::.cpu.inst     10209995                       # number of ReadReq misses
system.cpu.icache.ReadReq_misses::total      10209995                       # number of ReadReq misses
system.cpu.icache.ReadReq_miss_latency::.cpu.inst 396739338000                       # number of ReadReq miss cycles
system.cpu.icache.ReadReq_miss_latency::total 396739338000                       # number of ReadReq miss cycles
system.cpu.icache.ReadReq_accesses::.cpu.inst     12920994                       # number of ReadReq accesses(hits+misses)
system.cpu.icache.ReadReq_accesses::total     12920994                       # number of ReadReq accesses(hits+misses)
system.cpu.icache.ReadReq_miss_rate::.cpu.inst     0.790186                       # miss rate for ReadReq accesses
system.cpu.icache.ReadReq_miss_rate::total     0.790186                       # miss rate for ReadReq accesses
system.cpu.icache.ReadReq_avg_miss_latency::.cpu.inst 38857.936561                       # average ReadReq miss latency
system.cpu.icache.ReadReq_avg_miss_latency::total 38857.936561                       # average ReadReq miss latency
system.cpu.icache.ReadReq_mshr_misses::.cpu.inst     10209995                       # number of ReadReq MSHR misses
system.cpu.icache.ReadReq_mshr_misses::total     10209995                       # number of ReadReq MSHR misses
system.cpu.icache.ReadReq_mshr_miss_latency::.cpu.inst 376319348000                       # number of ReadReq MSHR miss cycles
system.cpu.icache.ReadReq_mshr_miss_latency::total 376319348000                       # number of ReadReq MSHR miss cycles
system.cpu.icache.ReadReq_mshr_miss_rate::.cpu.inst     0.790186                       # mshr miss rate for ReadReq accesses
system.cpu.icache.ReadReq_mshr_miss_rate::total     0.790186                       # mshr miss rate for ReadReq accesses
system.cpu.icache.ReadReq_avg_mshr_miss_latency::.cpu.inst 36857.936561                       # average ReadReq mshr miss latency
system.cpu.icache.ReadReq_avg_mshr_miss_latency::total 36857.936561                       # average ReadReq mshr miss latency
system.cpu.icache.power_state.pwrStateResidencyTicks::UNDEFINED 436094877000                       # Cumulative time (in ticks) in various power states
system.cpu.icache.tags.tagsinuse             1.999999                       # Cycle average of tags in use
system.cpu.icache.tags.total_refs            12920994                       # Total number of references to valid blocks.
system.cpu.icache.tags.sampled_refs          10209995                       # Sample count of references to valid blocks.
system.cpu.icache.tags.avg_refs              1.265524                       # Average number of references to valid blocks.
system.cpu.icache.tags.warmup_cycle            108000                       # Cycle when the warmup percentage was hit.
system.cpu.icache.tags.occ_blocks::.cpu.inst     1.999999                       # Average occupied blocks per requestor
system.cpu.icache.tags.occ_percent::.cpu.inst     1.000000                       # Average percentage of cache occupancy
system.cpu.icache.tags.occ_percent::total     1.000000                       # Average percentage of cache occupancy
system.cpu.icache.tags.occ_task_id_blocks::1024            2                       # Occupied blocks per task id
system.cpu.icache.tags.age_task_id_blocks_1024::0            2                       # Occupied blocks per task id
system.cpu.icache.tags.occ_task_id_percent::1024            1                       # Percentage of cache occupancy per task id
system.cpu.icache.tags.tag_accesses          23130989                       # Number of tag accesses
system.cpu.icache.tags.data_accesses         23130989                       # Number of data accesses
system.cpu.icache.tags.power_state.pwrStateResidencyTicks::UNDEFINED 436094877000                       # Cumulative time (in ticks) in various power states
system.cpu.itb.instHits                             0                       # ITB inst hits
system.cpu.itb.instMisses                           0                       # ITB inst misses
system.cpu.itb.readHits                             0                       # DTB read hits
system.cpu.itb.readMisses                           0                       # DTB read misses
system.cpu.itb.writeHits                            0                       # DTB write hits
system.cpu.itb.writeMisses                          0                       # DTB write misses
system.cpu.itb.inserts                              0                       # Number of times an entry is inserted into the TLB
system.cpu.itb.flushTlb                             0                       # Number of times complete TLB was flushed
system.cpu.itb.flushTlbMva                          0                       # Number of times TLB was flushed by MVA
system.cpu.itb.flushTlbMvaAsid                      0                       # Number of times TLB was flushed by MVA & ASID
system.cpu.itb.flushTlbAsid                         0                       # Number of times TLB was flushed by ASID
system.cpu.itb.flushedEntries                       0                       # Number of entries that have been flushed from TLB
system.cpu.itb.alignFaults                          0                       # Number of TLB faults due to alignment restrictions
system.cpu.itb.prefetchFaults                       0                       # Number of TLB faults due to prefetch
system.cpu.itb.domainFaults                         0                       # Number of TLB faults due to domain restrictions
system.cpu.itb.permsFaults                          0                       # Number of TLB faults due to permissions restrictions
system.cpu.itb.readAccesses                         0                       # DTB read accesses
system.cpu.itb.writeAccesses                        0                       # DTB write accesses
system.cpu.itb.instAccesses                         0                       # ITB inst accesses
system.cpu.itb.hits                                 0                       # Total TLB (inst and data) hits
system.cpu.itb.misses                               0                       # Total TLB (inst and data) misses
system.cpu.itb.accesses                             0                       # Total TLB (inst and data) accesses
system.cpu.itb.stage2_mmu.stage2_tlb.instHits            0                       # ITB inst hits
system.cpu.itb.stage2_mmu.stage2_tlb.instMisses            0                       # ITB inst misses
system.cpu.itb.stage2_mmu.stage2_tlb.readHits            0                       # DTB read hits
system.cpu.itb.stage2_mmu.stage2_tlb.readMisses            0                       # DTB read misses
system.cpu.itb.stage2_mmu.stage2_tlb.writeHits            0                       # DTB write hits
system.cpu.itb.stage2_mmu.stage2_tlb.writeMisses            0                       # DTB write misses
system.cpu.itb.stage2_mmu.stage2_tlb.inserts            0                       # Number of times an entry is inserted into the TLB
system.cpu.itb.stage2_mmu.stage2_tlb.flushTlb            0                       # Number of times complete TLB was flushed
system.cpu.itb.stage2_mmu.stage2_tlb.flushTlbMva            0                       # Number of times TLB was flushed by MVA
system.cpu.itb.stage2_mmu.stage2_tlb.flushTlbMvaAsid            0                       # Number of times TLB was flushed by MVA & ASID
system.cpu.itb.stage2_mmu.stage2_tlb.flushTlbAsid            0                       # Number of times TLB was flushed by ASID
system.cpu.itb.stage2_mmu.stage2_tlb.flushedEntries            0                       # Number of entries that have been flushed from TLB
system.cpu.itb.stage2_mmu.stage2_tlb.alignFaults            0                       # Number of TLB faults due to alignment restrictions
system.cpu.itb.stage2_mmu.stage2_tlb.prefetchFaults            0                       # Number of TLB faults due to prefetch
system.cpu.itb.stage2_mmu.stage2_tlb.domainFaults            0                       # Number of TLB faults due to domain restrictions
system.cpu.itb.stage2_mmu.stage2_tlb.permsFaults            0                       # Number of TLB faults due to permissions restrictions
system.cpu.itb.stage2_mmu.stage2_tlb.readAccesses            0                       # DTB read accesses
system.cpu.itb.stage2_mmu.stage2_tlb.writeAccesses            0                       # DTB write accesses
system.cpu.itb.stage2_mmu.stage2_tlb.instAccesses            0                       # ITB inst accesses
system.cpu.itb.stage2_mmu.stage2_tlb.hits            0                       # Total TLB (inst and data) hits
system.cpu.itb.stage2_mmu.stage2_tlb.misses            0                       # Total TLB (inst and data) misses
system.cpu.itb.stage2_mmu.stage2_tlb.accesses            0                       # Total TLB (inst and data) accesses
system.cpu.itb.stage2_mmu.stage2_tlb.walker.walks            0                       # Table walker walks requested
system.cpu.itb.stage2_mmu.stage2_tlb.walker.requestOrigin_Requested::Data            0                       # Table walker requests started/completed, data/inst
system.cpu.itb.stage2_mmu.stage2_tlb.walker.requestOrigin_Requested::Inst            0                       # Table walker requests started/completed, data/inst
system.cpu.itb.stage2_mmu.stage2_tlb.walker.requestOrigin_Requested::total            0                       # Table walker requests started/completed, data/inst
system.cpu.itb.stage2_mmu.stage2_tlb.walker.requestOrigin_Completed::Data            0                       # Table walker requests started/completed, data/inst
system.cpu.itb.stage2_mmu.stage2_tlb.walker.requestOrigin_Completed::Inst            0                       # Table walker requests started/completed, data/inst
system.cpu.itb.stage2_mmu.stage2_tlb.walker.requestOrigin_Completed::total            0                       # Table walker requests started/completed, data/inst
system.cpu.itb.stage2_mmu.stage2_tlb.walker.requestOrigin::total            0                       # Table walker requests started/completed, data/inst
system.cpu.itb.stage2_mmu.stage2_tlb.walker.power_state.pwrStateResidencyTicks::UNDEFINED 436094877000                       # Cumulative time (in ticks) in various power states
system.cpu.itb.walker.walks                         0                       # Table walker walks requested
system.cpu.itb.walker.requestOrigin_Requested::Data            0                       # Table walker requests started/completed, data/inst
system.cpu.itb.walker.requestOrigin_Requested::Inst            0                       # Table walker requests started/completed, data/inst
system.cpu.itb.walker.requestOrigin_Requested::total            0                       # Table walker requests started/completed, data/inst
system.cpu.itb.walker.requestOrigin_Completed::Data            0                       # Table walker requests started/completed, data/inst
system.cpu.itb.walker.requestOrigin_Completed::Inst            0                       # Table walker requests started/completed, data/inst
system.cpu.itb.walker.requestOrigin_Completed::total            0                       # Table walker requests started/completed, data/inst
system.cpu.itb.walker.requestOrigin::total            0                       # Table walker requests started/completed, data/inst
system.cpu.itb.walker.power_state.pwrStateResidencyTicks::UNDEFINED 436094877000                       # Cumulative time (in ticks) in various power states
system.cpu.power_state.pwrStateResidencyTicks::ON 436094877000                       # Cumulative time (in ticks) in various power states
system.cpu.thread_0.numInsts                100000000                       # Number of Instructions committed
system.cpu.thread_0.numOps                  116826593                       # Number of Ops committed
system.cpu.thread_0.numMemRefs                      0                       # Number of Memory References
system.cpu_clk_domain.clock                      1000                       # Clock period in ticks
system.cpu_voltage_domain.voltage                   1                       # Voltage in Volts
system.l2.demand_hits::.cpu.inst             10208871                       # number of demand (read+write) hits
system.l2.demand_hits::.cpu.data               731267                       # number of demand (read+write) hits
system.l2.demand_hits::total                 10940138                       # number of demand (read+write) hits
system.l2.overall_hits::.cpu.inst            10208871                       # number of overall hits
system.l2.overall_hits::.cpu.data              731267                       # number of overall hits
system.l2.overall_hits::total                10940138                       # number of overall hits
system.l2.demand_misses::.cpu.inst               1124                       # number of demand (read+write) misses
system.l2.demand_misses::.cpu.data               4480                       # number of demand (read+write) misses
system.l2.demand_misses::total                   5604                       # number of demand (read+write) misses
system.l2.overall_misses::.cpu.inst              1124                       # number of overall misses
system.l2.overall_misses::.cpu.data              4480                       # number of overall misses
system.l2.overall_misses::total                  5604                       # number of overall misses
system.l2.demand_miss_latency::.cpu.inst    108139000                       # number of demand (read+write) miss cycles
system.l2.demand_miss_latency::.cpu.data    444369000                       # number of demand (read+write) miss cycles
system.l2.demand_miss_latency::total        552508000                       # number of demand (read+write) miss cycles
system.l2.overall_miss_latency::.cpu.inst    108139000                       # number of overall miss cycles
system.l2.overall_miss_latency::.cpu.data    444369000                       # number of overall miss cycles
system.l2.overall_miss_latency::total       552508000                       # number of overall miss cycles
system.l2.demand_accesses::.cpu.inst         10209995                       # number of demand (read+write) accesses
system.l2.demand_accesses::.cpu.data           735747                       # number of demand (read+write) accesses
system.l2.demand_accesses::total             10945742                       # number of demand (read+write) accesses
system.l2.overall_accesses::.cpu.inst        10209995                       # number of overall (read+write) accesses
system.l2.overall_accesses::.cpu.data          735747                       # number of overall (read+write) accesses
system.l2.overall_accesses::total            10945742                       # number of overall (read+write) accesses
system.l2.demand_miss_rate::.cpu.inst        0.000110                       # miss rate for demand accesses
system.l2.demand_miss_rate::.cpu.data        0.006089                       # miss rate for demand accesses
system.l2.demand_miss_rate::total            0.000512                       # miss rate for demand accesses
system.l2.overall_miss_rate::.cpu.inst       0.000110                       # miss rate for overall accesses
system.l2.overall_miss_rate::.cpu.data       0.006089                       # miss rate for overall accesses
system.l2.overall_miss_rate::total           0.000512                       # miss rate for overall accesses
system.l2.demand_avg_miss_latency::.cpu.inst 96209.074733                       # average overall miss latency
system.l2.demand_avg_miss_latency::.cpu.data 99189.508929                       # average overall miss latency
system.l2.demand_avg_miss_latency::total 98591.720200                       # average overall miss latency
system.l2.overall_avg_miss_latency::.cpu.inst 96209.074733                       # average overall miss latency
system.l2.overall_avg_miss_latency::.cpu.data 99189.508929                       # average overall miss latency
system.l2.overall_avg_miss_latency::total 98591.720200                       # average overall miss latency
system.l2.blocked_cycles::no_mshrs                  0                       # number of cycles access was blocked
system.l2.blocked_cycles::no_targets                0                       # number of cycles access was blocked
system.l2.blocked::no_mshrs                         0                       # number of cycles access was blocked
system.l2.blocked::no_targets                       0                       # number of cycles access was blocked
system.l2.avg_blocked_cycles::no_mshrs            nan                       # average number of cycles each access was blocked
system.l2.avg_blocked_cycles::no_targets          nan                       # average number of cycles each access was blocked
system.l2.writebacks::.writebacks                   5                       # number of writebacks
system.l2.writebacks::total                         5                       # number of writebacks
system.l2.demand_mshr_hits::.cpu.inst               1                       # number of demand (read+write) MSHR hits
system.l2.demand_mshr_hits::.cpu.data               6                       # number of demand (read+write) MSHR hits
system.l2.demand_mshr_hits::total                   7                       # number of demand (read+write) MSHR hits
system.l2.overall_mshr_hits::.cpu.inst              1                       # number of overall MSHR hits
system.l2.overall_mshr_hits::.cpu.data              6                       # number of overall MSHR hits
system.l2.overall_mshr_hits::total                  7                       # number of overall MSHR hits
system.l2.demand_mshr_misses::.cpu.inst          1123                       # number of demand (read+write) MSHR misses
system.l2.demand_mshr_misses::.cpu.data          4474                       # number of demand (read+write) MSHR misses
system.l2.demand_mshr_misses::total              5597                       # number of demand (read+write) MSHR misses
system.l2.overall_mshr_misses::.cpu.inst         1123                       # number of overall MSHR misses
system.l2.overall_mshr_misses::.cpu.data         4474                       # number of overall MSHR misses
system.l2.overall_mshr_misses::total             5597                       # number of overall MSHR misses
system.l2.demand_mshr_miss_latency::.cpu.inst     85654000                       # number of demand (read+write) MSHR miss cycles
system.l2.demand_mshr_miss_latency::.cpu.data    354360000                       # number of demand (read+write) MSHR miss cycles
system.l2.demand_mshr_miss_latency::total    440014000                       # number of demand (read+write) MSHR miss cycles
system.l2.overall_mshr_miss_latency::.cpu.inst     85654000                       # number of overall MSHR miss cycles
system.l2.overall_mshr_miss_latency::.cpu.data    354360000                       # number of overall MSHR miss cycles
system.l2.overall_mshr_miss_latency::total    440014000                       # number of overall MSHR miss cycles
system.l2.demand_mshr_miss_rate::.cpu.inst     0.000110                       # mshr miss rate for demand accesses
system.l2.demand_mshr_miss_rate::.cpu.data     0.006081                       # mshr miss rate for demand accesses
system.l2.demand_mshr_miss_rate::total       0.000511                       # mshr miss rate for demand accesses
system.l2.overall_mshr_miss_rate::.cpu.inst     0.000110                       # mshr miss rate for overall accesses
system.l2.overall_mshr_miss_rate::.cpu.data     0.006081                       # mshr miss rate for overall accesses
system.l2.overall_mshr_miss_rate::total      0.000511                       # mshr miss rate for overall accesses
system.l2.demand_avg_mshr_miss_latency::.cpu.inst 76272.484417                       # average overall mshr miss latency
system.l2.demand_avg_mshr_miss_latency::.cpu.data 79204.291462                       # average overall mshr miss latency
system.l2.demand_avg_mshr_miss_latency::total 78616.044309                       # average overall mshr miss latency
system.l2.overall_avg_mshr_miss_latency::.cpu.inst 76272.484417                       # average overall mshr miss latency
system.l2.overall_avg_mshr_miss_latency::.cpu.data 79204.291462                       # average overall mshr miss latency
system.l2.overall_avg_mshr_miss_latency::total 78616.044309                       # average overall mshr miss latency
system.l2.replacements                             28                       # number of replacements
system.l2.WritebackDirty_hits::.writebacks       729473                       # number of WritebackDirty hits
system.l2.WritebackDirty_hits::total           729473                       # number of WritebackDirty hits
system.l2.WritebackDirty_accesses::.writebacks       729473                       # number of WritebackDirty accesses(hits+misses)
system.l2.WritebackDirty_accesses::total       729473                       # number of WritebackDirty accesses(hits+misses)
system.l2.WritebackClean_hits::.writebacks      9621231                       # number of WritebackClean hits
system.l2.WritebackClean_hits::total          9621231                       # number of WritebackClean hits
system.l2.WritebackClean_accesses::.writebacks      9621231                       # number of WritebackClean accesses(hits+misses)
system.l2.WritebackClean_accesses::total      9621231                       # number of WritebackClean accesses(hits+misses)
system.l2.ReadExReq_hits::.cpu.data            221513                       # number of ReadExReq hits
system.l2.ReadExReq_hits::total                221513                       # number of ReadExReq hits
system.l2.ReadExReq_misses::.cpu.data            3681                       # number of ReadExReq misses
system.l2.ReadExReq_misses::total                3681                       # number of ReadExReq misses
system.l2.ReadExReq_miss_latency::.cpu.data    363707000                       # number of ReadExReq miss cycles
system.l2.ReadExReq_miss_latency::total     363707000                       # number of ReadExReq miss cycles
system.l2.ReadExReq_accesses::.cpu.data        225194                       # number of ReadExReq accesses(hits+misses)
system.l2.ReadExReq_accesses::total            225194                       # number of ReadExReq accesses(hits+misses)
system.l2.ReadExReq_miss_rate::.cpu.data     0.016346                       # miss rate for ReadExReq accesses
system.l2.ReadExReq_miss_rate::total         0.016346                       # miss rate for ReadExReq accesses
system.l2.ReadExReq_avg_miss_latency::.cpu.data 98806.574300                       # average ReadExReq miss latency
system.l2.ReadExReq_avg_miss_latency::total 98806.574300                       # average ReadExReq miss latency
system.l2.ReadExReq_mshr_misses::.cpu.data         3681                       # number of ReadExReq MSHR misses
system.l2.ReadExReq_mshr_misses::total           3681                       # number of ReadExReq MSHR misses
system.l2.ReadExReq_mshr_miss_latency::.cpu.data    290087000                       # number of ReadExReq MSHR miss cycles
system.l2.ReadExReq_mshr_miss_latency::total    290087000                       # number of ReadExReq MSHR miss cycles
system.l2.ReadExReq_mshr_miss_rate::.cpu.data     0.016346                       # mshr miss rate for ReadExReq accesses
system.l2.ReadExReq_mshr_miss_rate::total     0.016346                       # mshr miss rate for ReadExReq accesses
system.l2.ReadExReq_avg_mshr_miss_latency::.cpu.data 78806.574300                       # average ReadExReq mshr miss latency
system.l2.ReadExReq_avg_mshr_miss_latency::total 78806.574300                       # average ReadExReq mshr miss latency
system.l2.ReadCleanReq_hits::.cpu.inst       10208871                       # number of ReadCleanReq hits
system.l2.ReadCleanReq_hits::total           10208871                       # number of ReadCleanReq hits
system.l2.ReadCleanReq_misses::.cpu.inst         1124                       # number of ReadCleanReq misses
system.l2.ReadCleanReq_misses::total             1124                       # number of ReadCleanReq misses
system.l2.ReadCleanReq_miss_latency::.cpu.inst    108139000                       # number of ReadCleanReq miss cycles
system.l2.ReadCleanReq_miss_latency::total    108139000                       # number of ReadCleanReq miss cycles
system.l2.ReadCleanReq_accesses::.cpu.inst     10209995                       # number of ReadCleanReq accesses(hits+misses)
system.l2.ReadCleanReq_accesses::total       10209995                       # number of ReadCleanReq accesses(hits+misses)
system.l2.ReadCleanReq_miss_rate::.cpu.inst     0.000110                       # miss rate for ReadCleanReq accesses
system.l2.ReadCleanReq_miss_rate::total      0.000110                       # miss rate for ReadCleanReq accesses
system.l2.ReadCleanReq_avg_miss_latency::.cpu.inst 96209.074733                       # average ReadCleanReq miss latency
system.l2.ReadCleanReq_avg_miss_latency::total 96209.074733                       # average ReadCleanReq miss latency
system.l2.ReadCleanReq_mshr_hits::.cpu.inst            1                       # number of ReadCleanReq MSHR hits
system.l2.ReadCleanReq_mshr_hits::total             1                       # number of ReadCleanReq MSHR hits
system.l2.ReadCleanReq_mshr_misses::.cpu.inst         1123                       # number of ReadCleanReq MSHR misses
system.l2.ReadCleanReq_mshr_misses::total         1123                       # number of ReadCleanReq MSHR misses
system.l2.ReadCleanReq_mshr_miss_latency::.cpu.inst     85654000                       # number of ReadCleanReq MSHR miss cycles
system.l2.ReadCleanReq_mshr_miss_latency::total     85654000                       # number of ReadCleanReq MSHR miss cycles
system.l2.ReadCleanReq_mshr_miss_rate::.cpu.inst     0.000110                       # mshr miss rate for ReadCleanReq accesses
system.l2.ReadCleanReq_mshr_miss_rate::total     0.000110                       # mshr miss rate for ReadCleanReq accesses
system.l2.ReadCleanReq_avg_mshr_miss_latency::.cpu.inst 76272.484417                       # average ReadCleanReq mshr miss latency
system.l2.ReadCleanReq_avg_mshr_miss_latency::total 76272.484417                       # average ReadCleanReq mshr miss latency
system.l2.ReadSharedReq_hits::.cpu.data        509754                       # number of ReadSharedReq hits
system.l2.ReadSharedReq_hits::total            509754                       # number of ReadSharedReq hits
system.l2.ReadSharedReq_misses::.cpu.data          799                       # number of ReadSharedReq misses
system.l2.ReadSharedReq_misses::total             799                       # number of ReadSharedReq misses
system.l2.ReadSharedReq_miss_latency::.cpu.data     80662000                       # number of ReadSharedReq miss cycles
system.l2.ReadSharedReq_miss_latency::total     80662000                       # number of ReadSharedReq miss cycles
system.l2.ReadSharedReq_accesses::.cpu.data       510553                       # number of ReadSharedReq accesses(hits+misses)
system.l2.ReadSharedReq_accesses::total        510553                       # number of ReadSharedReq accesses(hits+misses)
system.l2.ReadSharedReq_miss_rate::.cpu.data     0.001565                       # miss rate for ReadSharedReq accesses
system.l2.ReadSharedReq_miss_rate::total     0.001565                       # miss rate for ReadSharedReq accesses
system.l2.ReadSharedReq_avg_miss_latency::.cpu.data 100953.692115                       # average ReadSharedReq miss latency
system.l2.ReadSharedReq_avg_miss_latency::total 100953.692115                       # average ReadSharedReq miss latency
system.l2.ReadSharedReq_mshr_hits::.cpu.data            6                       # number of ReadSharedReq MSHR hits
system.l2.ReadSharedReq_mshr_hits::total            6                       # number of ReadSharedReq MSHR hits
system.l2.ReadSharedReq_mshr_misses::.cpu.data          793                       # number of ReadSharedReq MSHR misses
system.l2.ReadSharedReq_mshr_misses::total          793                       # number of ReadSharedReq MSHR misses
system.l2.ReadSharedReq_mshr_miss_latency::.cpu.data     64273000                       # number of ReadSharedReq MSHR miss cycles
system.l2.ReadSharedReq_mshr_miss_latency::total     64273000                       # number of ReadSharedReq MSHR miss cycles
system.l2.ReadSharedReq_mshr_miss_rate::.cpu.data     0.001553                       # mshr miss rate for ReadSharedReq accesses
system.l2.ReadSharedReq_mshr_miss_rate::total     0.001553                       # mshr miss rate for ReadSharedReq accesses
system.l2.ReadSharedReq_avg_mshr_miss_latency::.cpu.data 81050.441362                       # average ReadSharedReq mshr miss latency
system.l2.ReadSharedReq_avg_mshr_miss_latency::total 81050.441362                       # average ReadSharedReq mshr miss latency
system.l2.power_state.pwrStateResidencyTicks::UNDEFINED 436094877000                       # Cumulative time (in ticks) in various power states
system.l2.tags.tagsinuse                  5472.204109                       # Cycle average of tags in use
system.l2.tags.total_refs                    21302195                       # Total number of references to valid blocks.
system.l2.tags.sampled_refs                      5597                       # Sample count of references to valid blocks.
system.l2.tags.avg_refs                   3806.002323                       # Average number of references to valid blocks.
system.l2.tags.warmup_cycle                     87000                       # Cycle when the warmup percentage was hit.
system.l2.tags.occ_blocks::.cpu.inst      1101.590054                       # Average occupied blocks per requestor
system.l2.tags.occ_blocks::.cpu.data      4370.614056                       # Average occupied blocks per requestor
system.l2.tags.occ_percent::.cpu.inst        0.134471                       # Average percentage of cache occupancy
system.l2.tags.occ_percent::.cpu.data        0.533522                       # Average percentage of cache occupancy
system.l2.tags.occ_percent::total            0.667994                       # Average percentage of cache occupancy
system.l2.tags.occ_task_id_blocks::1024          5569                       # Occupied blocks per task id
system.l2.tags.age_task_id_blocks_1024::4         5569                       # Occupied blocks per task id
system.l2.tags.occ_task_id_percent::1024     0.679810                       # Percentage of cache occupancy per task id
system.l2.tags.tag_accesses                  85214405                       # Number of tag accesses
system.l2.tags.data_accesses                 85214405                       # Number of data accesses
system.l2.tags.power_state.pwrStateResidencyTicks::UNDEFINED 436094877000                       # Cumulative time (in ticks) in various power states
system.mem_ctrls.avgPriority_.writebacks::samples         5.00                       # Average QoS priority value for accepted requests
system.mem_ctrls.avgPriority_.cpu.inst::samples      1123.00                       # Average QoS priority value for accepted requests
system.mem_ctrls.avgPriority_.cpu.data::samples      4474.00                       # Average QoS priority value for accepted requests
system.mem_ctrls.priorityMinLatency      0.000000018750                       # per QoS priority minimum request to response latency (s)
system.mem_ctrls.priorityMaxLatency      0.000000585500                       # per QoS priority maximum request to response latency (s)
system.mem_ctrls.numReadWriteTurnArounds            0                       # Number of turnarounds from READ to WRITE
system.mem_ctrls.numWriteReadTurnArounds            0                       # Number of turnarounds from WRITE to READ
system.mem_ctrls.numStayReadState              123210                       # Number of times bus staying in READ state
system.mem_ctrls.numStayWriteState                  0                       # Number of times bus staying in WRITE state
system.mem_ctrls.readReqs                        5597                       # Number of read requests accepted
system.mem_ctrls.writeReqs                          5                       # Number of write requests accepted
system.mem_ctrls.readBursts                      5597                       # Number of controller read bursts, including those serviced by the write queue
system.mem_ctrls.writeBursts                        5                       # Number of controller write bursts, including those merged in the write queue
system.mem_ctrls.servicedByWrQ                      0                       # Number of controller read bursts serviced by the write queue
system.mem_ctrls.mergedWrBursts                     0                       # Number of controller write bursts merged with an existing one
system.mem_ctrls.neitherReadNorWriteReqs            0                       # Number of requests that are neither read nor write
system.mem_ctrls.avgRdQLen                       1.00                       # Average read queue length when enqueuing
system.mem_ctrls.avgWrQLen                       4.91                       # Average write queue length when enqueuing
system.mem_ctrls.numRdRetry                         0                       # Number of times read queue was full causing retry
system.mem_ctrls.numWrRetry                         0                       # Number of times write queue was full causing retry
system.mem_ctrls.readPktSize::0                     0                       # Read request sizes (log2)
system.mem_ctrls.readPktSize::1                     0                       # Read request sizes (log2)
system.mem_ctrls.readPktSize::2                     0                       # Read request sizes (log2)
system.mem_ctrls.readPktSize::3                     0                       # Read request sizes (log2)
system.mem_ctrls.readPktSize::4                     0                       # Read request sizes (log2)
system.mem_ctrls.readPktSize::5                     0                       # Read request sizes (log2)
system.mem_ctrls.readPktSize::6                  5597                       # Read request sizes (log2)
system.mem_ctrls.writePktSize::0                    0                       # Write request sizes (log2)
system.mem_ctrls.writePktSize::1                    0                       # Write request sizes (log2)
system.mem_ctrls.writePktSize::2                    0                       # Write request sizes (log2)
system.mem_ctrls.writePktSize::3                    0                       # Write request sizes (log2)
system.mem_ctrls.writePktSize::4                    0                       # Write request sizes (log2)
system.mem_ctrls.writePktSize::5                    0                       # Write request sizes (log2)
system.mem_ctrls.writePktSize::6                    5                       # Write request sizes (log2)
system.mem_ctrls.rdQLenPdf::0                    5204                       # What read queue length does an incoming req see
system.mem_ctrls.rdQLenPdf::1                     372                       # What read queue length does an incoming req see
system.mem_ctrls.rdQLenPdf::2                      21                       # What read queue length does an incoming req see
system.mem_ctrls.rdQLenPdf::3                       0                       # What read queue length does an incoming req see
system.mem_ctrls.rdQLenPdf::4                       0                       # What read queue length does an incoming req see
system.mem_ctrls.rdQLenPdf::5                       0                       # What read queue length does an incoming req see
system.mem_ctrls.rdQLenPdf::6                       0                       # What read queue length does an incoming req see
system.mem_ctrls.rdQLenPdf::7                       0                       # What read queue length does an incoming req see
system.mem_ctrls.rdQLenPdf::8                       0                       # What read queue length does an incoming req see
system.mem_ctrls.rdQLenPdf::9                       0                       # What read queue length does an incoming req see
system.mem_ctrls.rdQLenPdf::10                      0                       # What read queue length does an incoming req see
system.mem_ctrls.rdQLenPdf::11                      0                       # What read queue length does an incoming req see
system.mem_ctrls.rdQLenPdf::12                      0                       # What read queue length does an incoming req see
[...]
system.mem_ctrls.dram.bw_write::.writebacks          734                       # Write bandwidth from this memory (bytes/s)
system.mem_ctrls.dram.bw_write::total             734                       # Write bandwidth from this memory (bytes/s)
system.mem_ctrls.dram.bw_total::.writebacks          734                       # Total bandwidth to/from this memory (bytes/s)
system.mem_ctrls.dram.bw_total::.cpu.inst       164808                       # Total bandwidth to/from this memory (bytes/s)
system.mem_ctrls.dram.bw_total::.cpu.data       656591                       # Total bandwidth to/from this memory (bytes/s)
system.mem_ctrls.dram.bw_total::total          822133                       # Total bandwidth to/from this memory (bytes/s)
system.mem_ctrls.dram.readBursts                 5597                       # Number of DRAM read bursts
system.mem_ctrls.dram.writeBursts                   0                       # Number of DRAM write bursts
system.mem_ctrls.dram.perBankRdBursts::0          413                       # Per bank write bursts
system.mem_ctrls.dram.perBankRdBursts::1          395                       # Per bank write bursts
system.mem_ctrls.dram.perBankRdBursts::2          363                       # Per bank write bursts
system.mem_ctrls.dram.perBankRdBursts::3          333                       # Per bank write bursts
system.mem_ctrls.dram.perBankRdBursts::4          346                       # Per bank write bursts
system.mem_ctrls.dram.perBankRdBursts::5          299                       # Per bank write bursts
system.mem_ctrls.dram.perBankRdBursts::6          370                       # Per bank write bursts
system.mem_ctrls.dram.perBankRdBursts::7          368                       # Per bank write bursts
system.mem_ctrls.dram.perBankRdBursts::8          223                       # Per bank write bursts
system.mem_ctrls.dram.perBankRdBursts::9          329                       # Per bank write bursts
system.mem_ctrls.dram.perBankRdBursts::10          294                       # Per bank write bursts
system.mem_ctrls.dram.perBankRdBursts::11          344                       # Per bank write bursts
system.mem_ctrls.dram.perBankRdBursts::12          362                       # Per bank write bursts
system.mem_ctrls.dram.perBankRdBursts::13          403                       # Per bank write bursts
system.mem_ctrls.dram.perBankRdBursts::14          422                       # Per bank write bursts
system.mem_ctrls.dram.perBankRdBursts::15          333                       # Per bank write bursts
system.mem_ctrls.dram.perBankWrBursts::0            0                       # Per bank write bursts
system.mem_ctrls.dram.perBankWrBursts::1            0                       # Per bank write bursts
system.mem_ctrls.dram.perBankWrBursts::2            0                       # Per bank write bursts
system.mem_ctrls.dram.perBankWrBursts::3            0                       # Per bank write bursts
system.mem_ctrls.dram.perBankWrBursts::4            0                       # Per bank write bursts
system.mem_ctrls.dram.perBankWrBursts::5            0                       # Per bank write bursts
system.mem_ctrls.dram.perBankWrBursts::6            0                       # Per bank write bursts
system.mem_ctrls.dram.perBankWrBursts::7            0                       # Per bank write bursts
system.mem_ctrls.dram.perBankWrBursts::8            0                       # Per bank write bursts
system.mem_ctrls.dram.perBankWrBursts::9            0                       # Per bank write bursts
system.mem_ctrls.dram.perBankWrBursts::10            0                       # Per bank write bursts
system.mem_ctrls.dram.perBankWrBursts::11            0                       # Per bank write bursts
system.mem_ctrls.dram.perBankWrBursts::12            0                       # Per bank write bursts
system.mem_ctrls.dram.perBankWrBursts::13            0                       # Per bank write bursts
system.mem_ctrls.dram.perBankWrBursts::14            0                       # Per bank write bursts
system.mem_ctrls.dram.perBankWrBursts::15            0                       # Per bank write bursts
system.mem_ctrls.dram.totQLat                47809250                       # Total ticks spent queuing
system.mem_ctrls.dram.totBusLat              27985000                       # Total ticks spent in databus transfers
system.mem_ctrls.dram.totMemAccLat          152753000                       # Total ticks spent from burst creation until serviced by the DRAM
system.mem_ctrls.dram.avgQLat                 8541.94                       # Average queueing delay per DRAM burst
system.mem_ctrls.dram.avgBusLat               5000.00                       # Average bus latency per DRAM burst
system.mem_ctrls.dram.avgMemAccLat           27291.94                       # Average memory access latency per DRAM burst
system.mem_ctrls.dram.readRowHits                4013                       # Number of row buffer hits during reads
system.mem_ctrls.dram.writeRowHits                  0                       # Number of row buffer hits during writes
system.mem_ctrls.dram.readRowHitRate            71.70                       # Row buffer hit rate for reads
system.mem_ctrls.dram.writeRowHitRate             nan                       # Row buffer hit rate for writes
system.mem_ctrls.dram.bytesPerActivate::samples         1584                       # Bytes accessed per row activation
system.mem_ctrls.dram.bytesPerActivate::mean   226.141414                       # Bytes accessed per row activation
system.mem_ctrls.dram.bytesPerActivate::gmean   149.600881                       # Bytes accessed per row activation
system.mem_ctrls.dram.bytesPerActivate::stdev   254.998555                       # Bytes accessed per row activation
system.mem_ctrls.dram.bytesPerActivate::0-127          576     36.36%     36.36% # Bytes accessed per row activation
system.mem_ctrls.dram.bytesPerActivate::128-255          504     31.82%     68.18% # Bytes accessed per row activation
system.mem_ctrls.dram.bytesPerActivate::256-383          290     18.31%     86.49% # Bytes accessed per row activation
system.mem_ctrls.dram.bytesPerActivate::384-511           43      2.71%     89.20% # Bytes accessed per row activation
system.mem_ctrls.dram.bytesPerActivate::512-639           25      1.58%     90.78% # Bytes accessed per row activation
system.mem_ctrls.dram.bytesPerActivate::640-767           19      1.20%     91.98% # Bytes accessed per row activation
system.mem_ctrls.dram.bytesPerActivate::768-895           11      0.69%     92.68% # Bytes accessed per row activation
system.mem_ctrls.dram.bytesPerActivate::896-1023           11      0.69%     93.37% # Bytes accessed per row activation
system.mem_ctrls.dram.bytesPerActivate::1024-1151          105      6.63%    100.00% # Bytes accessed per row activation
system.mem_ctrls.dram.bytesPerActivate::total         1584                       # Bytes accessed per row activation
system.mem_ctrls.dram.bytesRead                358208                       # Total number of bytes read from DRAM
system.mem_ctrls.dram.bytesWritten                  0                       # Total number of bytes written to DRAM
system.mem_ctrls.dram.avgRdBW                0.821399                       # Average DRAM read bandwidth in MiBytes/s
system.mem_ctrls.dram.avgWrBW                       0                       # Average DRAM write bandwidth in MiBytes/s
system.mem_ctrls.dram.peakBW                 12800.00                       # Theoretical peak bandwidth in MiByte/s
system.mem_ctrls.dram.busUtil                    0.01                       # Data bus utilization in percentage
system.mem_ctrls.dram.busUtilRead                0.01                       # Data bus utilization in percentage for reads
system.mem_ctrls.dram.busUtilWrite               0.00                       # Data bus utilization in percentage for writes
system.mem_ctrls.dram.pageHitRate               71.70                       # Row buffer hit rate, read and write combined
system.mem_ctrls.dram.power_state.pwrStateResidencyTicks::UNDEFINED 436094877000                       # Cumulative time (in ticks) in various power states
system.mem_ctrls.dram.rank0.actEnergy         6118980                       # Energy for activate commands per rank (pJ)
system.mem_ctrls.dram.rank0.preEnergy         3252315                       # Energy for precharge commands per rank (pJ)
system.mem_ctrls.dram.rank0.readEnergy       20613180                       # Energy for read commands per rank (pJ)
system.mem_ctrls.dram.rank0.writeEnergy             0                       # Energy for write commands per rank (pJ)
system.mem_ctrls.dram.rank0.refreshEnergy 34424757120.000008                       # Energy for refresh commands per rank (pJ)
system.mem_ctrls.dram.rank0.actBackEnergy   7545178350                       # Energy for active background per rank (pJ)
system.mem_ctrls.dram.rank0.preBackEnergy 161106598560                       # Energy for precharge background per rank (pJ)
system.mem_ctrls.dram.rank0.actPowerDownEnergy            0                       # Energy for active power-down per rank (pJ)
system.mem_ctrls.dram.rank0.prePowerDownEnergy            0                       # Energy for precharge power-down per rank (pJ)
system.mem_ctrls.dram.rank0.selfRefreshEnergy            0                       # Energy for self refresh per rank (pJ)
system.mem_ctrls.dram.rank0.totalEnergy  203106518505                       # Total energy per rank (pJ)
system.mem_ctrls.dram.rank0.averagePower   465.739290                       # Core power per rank (mW)
system.mem_ctrls.dram.rank0.totalIdleTime            0                       # Total Idle time Per DRAM Rank
system.mem_ctrls.dram.rank0.pwrStateTime::IDLE 418770923750                       # Time in different power states
system.mem_ctrls.dram.rank0.pwrStateTime::REF  14562080000                       # Time in different power states
system.mem_ctrls.dram.rank0.pwrStateTime::SREF            0                       # Time in different power states
system.mem_ctrls.dram.rank0.pwrStateTime::PRE_PDN            0                       # Time in different power states
system.mem_ctrls.dram.rank0.pwrStateTime::ACT   2761873250                       # Time in different power states
system.mem_ctrls.dram.rank0.pwrStateTime::ACT_PDN            0                       # Time in different power states
system.mem_ctrls.dram.rank1.actEnergy         5190780                       # Energy for activate commands per rank (pJ)
system.mem_ctrls.dram.rank1.preEnergy         2758965                       # Energy for precharge commands per rank (pJ)
system.mem_ctrls.dram.rank1.readEnergy       19349400                       # Energy for read commands per rank (pJ)
system.mem_ctrls.dram.rank1.writeEnergy             0                       # Energy for write commands per rank (pJ)
system.mem_ctrls.dram.rank1.refreshEnergy 34424757120.000008                       # Energy for refresh commands per rank (pJ)
system.mem_ctrls.dram.rank1.actBackEnergy   7372580070                       # Energy for active background per rank (pJ)
system.mem_ctrls.dram.rank1.preBackEnergy 161251944480                       # Energy for precharge background per rank (pJ)
system.mem_ctrls.dram.rank1.actPowerDownEnergy            0                       # Energy for active power-down per rank (pJ)
system.mem_ctrls.dram.rank1.prePowerDownEnergy            0                       # Energy for precharge power-down per rank (pJ)
system.mem_ctrls.dram.rank1.selfRefreshEnergy            0                       # Energy for self refresh per rank (pJ)
system.mem_ctrls.dram.rank1.totalEnergy  203076580815                       # Total energy per rank (pJ)
system.mem_ctrls.dram.rank1.averagePower   465.670641                       # Core power per rank (mW)
system.mem_ctrls.dram.rank1.totalIdleTime            0                       # Total Idle time Per DRAM Rank
system.mem_ctrls.dram.rank1.pwrStateTime::IDLE 419150131000                       # Time in different power states
system.mem_ctrls.dram.rank1.pwrStateTime::REF  14562080000                       # Time in different power states
system.mem_ctrls.dram.rank1.pwrStateTime::SREF            0                       # Time in different power states
system.mem_ctrls.dram.rank1.pwrStateTime::PRE_PDN            0                       # Time in different power states
system.mem_ctrls.dram.rank1.pwrStateTime::ACT   2382666000                       # Time in different power states
system.mem_ctrls.dram.rank1.pwrStateTime::ACT_PDN            0                       # Time in different power states
system.mem_ctrls.power_state.pwrStateResidencyTicks::UNDEFINED 436094877000                       # Cumulative time (in ticks) in various power states
system.membus.trans_dist::ReadResp               1916                       # Transaction distribution
system.membus.trans_dist::WritebackDirty            5                       # Transaction distribution
system.membus.trans_dist::CleanEvict               23                       # Transaction distribution
system.membus.trans_dist::ReadExReq              3681                       # Transaction distribution
system.membus.trans_dist::ReadExResp             3681                       # Transaction distribution
system.membus.trans_dist::ReadSharedReq          1916                       # Transaction distribution
system.membus.pkt_count_system.l2.mem_side_port::system.mem_ctrls.port        11222                       # Packet count per connected requestor and responder (bytes)
system.membus.pkt_count::total                  11222                       # Packet count per connected requestor and responder (bytes)
system.membus.pkt_size_system.l2.mem_side_port::system.mem_ctrls.port       358528                       # Cumulative packet size per connected requestor and responder (bytes)
system.membus.pkt_size::total                  358528                       # Cumulative packet size per connected requestor and responder (bytes)
system.membus.snoops                                0                       # Total snoops (count)
system.membus.snoopTraffic                          0                       # Total snoop traffic (bytes)
system.membus.snoop_fanout::samples              5597                       # Request fanout histogram
system.membus.snoop_fanout::mean                    0                       # Request fanout histogram
system.membus.snoop_fanout::stdev                   0                       # Request fanout histogram
system.membus.snoop_fanout::underflows              0      0.00%      0.00% # Request fanout histogram
system.membus.snoop_fanout::0                    5597    100.00%    100.00% # Request fanout histogram
system.membus.snoop_fanout::1                       0      0.00%    100.00% # Request fanout histogram
system.membus.snoop_fanout::overflows               0      0.00%    100.00% # Request fanout histogram
system.membus.snoop_fanout::min_value               0                       # Request fanout histogram
system.membus.snoop_fanout::max_value               0                       # Request fanout histogram
system.membus.snoop_fanout::total                5597                       # Request fanout histogram
system.membus.power_state.pwrStateResidencyTicks::UNDEFINED 436094877000                       # Cumulative time (in ticks) in various power states
system.membus.reqLayer0.occupancy             5645000                       # Layer occupancy (ticks)
system.membus.reqLayer0.utilization               0.0                       # Layer utilization (%)
system.membus.respLayer1.occupancy           29729750                       # Layer occupancy (ticks)
system.membus.respLayer1.utilization              0.0                       # Layer utilization (%)
system.tol2bus.trans_dist::ReadResp          10720548                       # Transaction distribution
system.tol2bus.trans_dist::WritebackDirty       729478                       # Transaction distribution
system.tol2bus.trans_dist::WritebackClean     10209992                       # Transaction distribution
system.tol2bus.trans_dist::CleanEvict            5785                       # Transaction distribution
system.tol2bus.trans_dist::ReadExReq           225194                       # Transaction distribution
system.tol2bus.trans_dist::ReadExResp          225194                       # Transaction distribution
system.tol2bus.trans_dist::ReadCleanReq      10209995                       # Transaction distribution
system.tol2bus.trans_dist::ReadSharedReq       510553                       # Transaction distribution
system.tol2bus.pkt_count_system.cpu.icache.mem_side_port::system.l2.cpu_side_port     30629982                       # Packet count per connected requestor and responder (bytes)
system.tol2bus.pkt_count_system.cpu.dcache.mem_side_port::system.l2.cpu_side_port      2206729                       # Packet count per connected requestor and responder (bytes)
system.tol2bus.pkt_count::total              32836711                       # Packet count per connected requestor and responder (bytes)
system.tol2bus.pkt_size_system.cpu.icache.mem_side_port::system.l2.cpu_side_port   1306879168                       # Cumulative packet size per connected requestor and responder (bytes)
system.tol2bus.pkt_size_system.cpu.dcache.mem_side_port::system.l2.cpu_side_port     93774080                       # Cumulative packet size per connected requestor and responder (bytes)
system.tol2bus.pkt_size::total             1400653248                       # Cumulative packet size per connected requestor and responder (bytes)
system.tol2bus.snoops                              28                       # Total snoops (count)
system.tol2bus.snoopTraffic                       320                       # Total snoop traffic (bytes)
system.tol2bus.snoop_fanout::samples         10945770                       # Request fanout histogram
system.tol2bus.snoop_fanout::mean            0.053789                       # Request fanout histogram
system.tol2bus.snoop_fanout::stdev           0.225602                       # Request fanout histogram
system.tol2bus.snoop_fanout::underflows             0      0.00%      0.00% # Request fanout histogram
system.tol2bus.snoop_fanout::0               10357003     94.62%     94.62% # Request fanout histogram
system.tol2bus.snoop_fanout::1                 588767      5.38%    100.00% # Request fanout histogram
system.tol2bus.snoop_fanout::2                      0      0.00%    100.00% # Request fanout histogram
system.tol2bus.snoop_fanout::overflows              0      0.00%    100.00% # Request fanout histogram
system.tol2bus.snoop_fanout::min_value              0                       # Request fanout histogram
system.tol2bus.snoop_fanout::max_value              1                       # Request fanout histogram
system.tol2bus.snoop_fanout::total           10945770                       # Request fanout histogram
system.tol2bus.power_state.pwrStateResidencyTicks::UNDEFINED 436094877000                       # Cumulative time (in ticks) in various power states
system.tol2bus.reqLayer0.occupancy        43769899000                       # Layer occupancy (ticks)
system.tol2bus.reqLayer0.utilization             10.0                       # Layer utilization (%)
system.tol2bus.respLayer0.occupancy       30630557427                       # Layer occupancy (ticks)
system.tol2bus.respLayer0.utilization             7.0                       # Layer utilization (%)
system.tol2bus.respLayer1.occupancy        2207351889                       # Layer occupancy (ticks)
system.tol2bus.respLayer1.utilization             0.5                       # Layer utilization (%)
system.voltage_domain.voltage                       1                       # Voltage in Volts

---------- End Simulation Statistics   ----------
