
---------- Begin Simulation Statistics ----------
final_tick                               112398437000                       # Number of ticks from beginning of simulation (restored from checkpoints and never reset)
host_inst_rate                                 375705                       # Simulator instruction rate (inst/s)
host_mem_usage                                 658320                       # Number of bytes of host memory used
host_op_rate                                   411139                       # Simulator op (including micro ops) rate (op/s)
host_seconds                                   266.17                       # Real time elapsed on the host
host_tick_rate                              422286901                       # Simulator tick rate (ticks/s)
sim_freq                                 1000000000000                       # Frequency of simulated ticks
sim_insts                                   100000001                       # Number of instructions simulated
sim_ops                                     109431277                       # Number of ops (including micro ops) simulated
sim_seconds                                  0.112398                       # Number of seconds simulated
sim_ticks                                112398437000                       # Number of ticks simulated
system.cpu.committedInsts                   100000001                       # Number of instructions committed
system.cpu.committedOps                     109431277                       # Number of ops (including micro ops) committed
system.cpu.cpi                               1.123984                       # CPI: cycles per instruction
system.cpu.discardedOps                        376493                       # Number of ops (including micro ops) which were discarded before commit
system.cpu.idleCycles                         3548622                       # Total number of cycles that the object has spent stopped
system.cpu.ipc                               0.889692                       # IPC: instructions per cycle
system.cpu.numCycles                        112398437                       # number of cpu cycles simulated
system.cpu.numFetchSuspends                         0                       # Number of times Execute suspended instruction fetching
system.cpu.numWorkItemsCompleted                    0                       # number of work items this cpu completed
system.cpu.numWorkItemsStarted                      0                       # number of work items this cpu started
system.cpu.op_class_0::No_OpClass                   0      0.00%      0.00% # Class of committed instruction
system.cpu.op_class_0::IntAlu                72955010     66.67%     66.67% # Class of committed instruction
system.cpu.op_class_0::IntMult                 568364      0.52%     67.19% # Class of committed instruction
system.cpu.op_class_0::IntDiv                       0      0.00%     67.19% # Class of committed instruction
system.cpu.op_class_0::FloatAdd                     0      0.00%     67.19% # Class of committed instruction
system.cpu.op_class_0::FloatCmp                     0      0.00%     67.19% # Class of committed instruction
system.cpu.op_class_0::FloatCvt                     0      0.00%     67.19% # Class of committed instruction
system.cpu.op_class_0::FloatMult                    0      0.00%     67.19% # Class of committed instruction
system.cpu.op_class_0::FloatMultAcc                 0      0.00%     67.19% # Class of committed instruction
system.cpu.op_class_0::FloatDiv                     0      0.00%     67.19% # Class of committed instruction
system.cpu.op_class_0::FloatMisc                    0      0.00%     67.19% # Class of committed instruction
system.cpu.op_class_0::FloatSqrt                    0      0.00%     67.19% # Class of committed instruction
system.cpu.op_class_0::SimdAdd                 241336      0.22%     67.41% # Class of committed instruction
system.cpu.op_class_0::SimdAddAcc                   0      0.00%     67.41% # Class of committed instruction
system.cpu.op_class_0::SimdAlu                 154628      0.14%     67.55% # Class of committed instruction
system.cpu.op_class_0::SimdCmp                 120668      0.11%     67.66% # Class of committed instruction
system.cpu.op_class_0::SimdCvt                      0      0.00%     67.66% # Class of committed instruction
system.cpu.op_class_0::SimdMisc                 44543      0.04%     67.70% # Class of committed instruction
system.cpu.op_class_0::SimdMult                     0      0.00%     67.70% # Class of committed instruction
system.cpu.op_class_0::SimdMultAcc                  0      0.00%     67.70% # Class of committed instruction
system.cpu.op_class_0::SimdShift                    0      0.00%     67.70% # Class of committed instruction
system.cpu.op_class_0::SimdShiftAcc                 0      0.00%     67.70% # Class of committed instruction
system.cpu.op_class_0::SimdDiv                      0      0.00%     67.70% # Class of committed instruction
system.cpu.op_class_0::SimdSqrt                     0      0.00%     67.70% # Class of committed instruction
system.cpu.op_class_0::SimdFloatAdd                 0      0.00%     67.70% # Class of committed instruction
system.cpu.op_class_0::SimdFloatAlu                 0      0.00%     67.70% # Class of committed instruction
system.cpu.op_class_0::SimdFloatCmp                 0      0.00%     67.70% # Class of committed instruction
system.cpu.op_class_0::SimdFloatCvt                 0      0.00%     67.70% # Class of committed instruction
system.cpu.op_class_0::SimdFloatDiv                 0      0.00%     67.70% # Class of committed instruction
system.cpu.op_class_0::SimdFloatMisc           166417      0.15%     67.85% # Class of committed instruction
system.cpu.op_class_0::SimdFloatMult                0      0.00%     67.85% # Class of committed instruction
system.cpu.op_class_0::SimdFloatMultAcc             0      0.00%     67.85% # Class of committed instruction
system.cpu.op_class_0::SimdFloatSqrt                0      0.00%     67.85% # Class of committed instruction
system.cpu.op_class_0::SimdReduceAdd                0      0.00%     67.85% # Class of committed instruction
system.cpu.op_class_0::SimdReduceAlu                0      0.00%     67.85% # Class of committed instruction
system.cpu.op_class_0::SimdReduceCmp                0      0.00%     67.85% # Class of committed instruction
system.cpu.op_class_0::SimdFloatReduceAdd            0      0.00%     67.85% # Class of committed instruction
system.cpu.op_class_0::SimdFloatReduceCmp            0      0.00%     67.85% # Class of committed instruction
system.cpu.op_class_0::SimdAes                      0      0.00%     67.85% # Class of committed instruction
system.cpu.op_class_0::SimdAesMix                   0      0.00%     67.85% # Class of committed instruction
system.cpu.op_class_0::SimdSha1Hash                 0      0.00%     67.85% # Class of committed instruction
system.cpu.op_class_0::SimdSha1Hash2                0      0.00%     67.85% # Class of committed instruction
system.cpu.op_class_0::SimdSha256Hash               0      0.00%     67.85% # Class of committed instruction
system.cpu.op_class_0::SimdSha256Hash2              0      0.00%     67.85% # Class of committed instruction
system.cpu.op_class_0::SimdShaSigma2                0      0.00%     67.85% # Class of committed instruction
system.cpu.op_class_0::SimdShaSigma3                0      0.00%     67.85% # Class of committed instruction
system.cpu.op_class_0::SimdPredAlu                  0      0.00%     67.85% # Class of committed instruction
system.cpu.op_class_0::MemRead               20645992     18.87%     86.72% # Class of committed instruction
system.cpu.op_class_0::MemWrite              14534319     13.28%    100.00% # Class of committed instruction
system.cpu.op_class_0::FloatMemRead                 0      0.00%    100.00% # Class of committed instruction
system.cpu.op_class_0::FloatMemWrite                0      0.00%    100.00% # Class of committed instruction
system.cpu.op_class_0::IprAccess                    0      0.00%    100.00% # Class of committed instruction
system.cpu.op_class_0::InstPrefetch                 0      0.00%    100.00% # Class of committed instruction
system.cpu.op_class_0::total                109431277                       # Class of committed instruction
system.cpu.tickCycles                       108849815                       # Number of cycles that the object actually ticked
system.cpu.workload.numSyscalls                    87                       # Number of system calls
system.membus.snoop_filter.hit_multi_requests            0                       # Number of requests hitting in the snoop filter with multiple (>1) holders of the requested data.
system.membus.snoop_filter.hit_multi_snoops            0                       # Number of snoops hitting in the snoop filter with multiple (>1) holders of the requested data.
system.membus.snoop_filter.hit_single_requests        37642                       # Number of requests hitting in the snoop filter with a single holder of the requested data.
system.membus.snoop_filter.hit_single_snoops            0                       # Number of snoops hitting in the snoop filter with a single holder of the requested data.
system.membus.snoop_filter.tot_requests         84002                       # Total number of requests made to the snoop filter.
system.membus.snoop_filter.tot_snoops               0                       # Total number of snoops made to the snoop filter.
system.tol2bus.snoop_filter.hit_multi_requests           25                       # Number of requests hitting in the snoop filter with multiple (>1) holders of the requested data.
system.tol2bus.snoop_filter.hit_multi_snoops            6                       # Number of snoops hitting in the snoop filter with multiple (>1) holders of the requested data.
system.tol2bus.snoop_filter.hit_single_requests        53047                       # Number of requests hitting in the snoop filter with a single holder of the requested data.
system.tol2bus.snoop_filter.hit_single_snoops          597                       # Number of snoops hitting in the snoop filter with a single holder of the requested data.
system.tol2bus.snoop_filter.tot_requests       107610                       # Total number of requests made to the snoop filter.
system.tol2bus.snoop_filter.tot_snoops            603                       # Total number of snoops made to the snoop filter.
system.clk_domain.clock                          1000                       # Clock period in ticks
system.cpu.branchPred.lookups                20360283                       # Number of BP lookups
system.cpu.branchPred.condPredicted          16297503                       # Number of conditional branches predicted
system.cpu.branchPred.condIncorrect             53388                       # Number of conditional branches incorrect
system.cpu.branchPred.BTBLookups              8737491                       # Number of BTB lookups
system.cpu.branchPred.BTBHits                 8736098                       # Number of BTB hits
system.cpu.branchPred.BTBHitPct             99.984057                       # BTB Hit Percentage
system.cpu.branchPred.RASUsed                 1050582                       # Number of times the RAS was used to get a target.
system.cpu.branchPred.RASIncorrect                325                       # Number of incorrect RAS predictions.
system.cpu.branchPred.indirectLookups          434004                       # Number of indirect predictor lookups.
system.cpu.branchPred.indirectHits             300030                       # Number of indirect target hits.
system.cpu.branchPred.indirectMisses           133974                       # Number of indirect misses.
system.cpu.branchPred.indirectMispredicted         1037                       # Number of mispredicted indirect branches.
system.cpu.dcache.demand_hits::.cpu.data     35612575                       # number of demand (read+write) hits
system.cpu.dcache.demand_hits::total         35612575                       # number of demand (read+write) hits
system.cpu.dcache.overall_hits::.cpu.data     35615894                       # number of overall hits
system.cpu.dcache.overall_hits::total        35615894                       # number of overall hits
system.cpu.dcache.demand_misses::.cpu.data        73569                       # number of demand (read+write) misses
system.cpu.dcache.demand_misses::total          73569                       # number of demand (read+write) misses
system.cpu.dcache.overall_misses::.cpu.data        73611                       # number of overall misses
system.cpu.dcache.overall_misses::total         73611                       # number of overall misses
system.cpu.dcache.demand_miss_latency::.cpu.data   6505657000                       # number of demand (read+write) miss cycles
system.cpu.dcache.demand_miss_latency::total   6505657000                       # number of demand (read+write) miss cycles
system.cpu.dcache.overall_miss_latency::.cpu.data   6505657000                       # number of overall miss cycles
system.cpu.dcache.overall_miss_latency::total   6505657000                       # number of overall miss cycles
system.cpu.dcache.demand_accesses::.cpu.data     35686144                       # number of demand (read+write) accesses
system.cpu.dcache.demand_accesses::total     35686144                       # number of demand (read+write) accesses
system.cpu.dcache.overall_accesses::.cpu.data     35689505                       # number of overall (read+write) accesses
system.cpu.dcache.overall_accesses::total     35689505                       # number of overall (read+write) accesses
system.cpu.dcache.demand_miss_rate::.cpu.data     0.002062                       # miss rate for demand accesses
system.cpu.dcache.demand_miss_rate::total     0.002062                       # miss rate for demand accesses
system.cpu.dcache.overall_miss_rate::.cpu.data     0.002063                       # miss rate for overall accesses
system.cpu.dcache.overall_miss_rate::total     0.002063                       # miss rate for overall accesses
system.cpu.dcache.demand_avg_miss_latency::.cpu.data 88429.324851                       # average overall miss latency
system.cpu.dcache.demand_avg_miss_latency::total 88429.324851                       # average overall miss latency
system.cpu.dcache.overall_avg_miss_latency::.cpu.data 88378.870006                       # average overall miss latency
system.cpu.dcache.overall_avg_miss_latency::total 88378.870006                       # average overall miss latency
system.cpu.dcache.blocked_cycles::no_mshrs            0                       # number of cycles access was blocked
system.cpu.dcache.blocked_cycles::no_targets            0                       # number of cycles access was blocked
system.cpu.dcache.blocked::no_mshrs                 0                       # number of cycles access was blocked
system.cpu.dcache.blocked::no_targets               0                       # number of cycles access was blocked
system.cpu.dcache.avg_blocked_cycles::no_mshrs          nan                       # average number of cycles each access was blocked
system.cpu.dcache.avg_blocked_cycles::no_targets          nan                       # average number of cycles each access was blocked
system.cpu.dcache.writebacks::.writebacks        49891                       # number of writebacks
system.cpu.dcache.writebacks::total             49891                       # number of writebacks
system.cpu.dcache.demand_mshr_hits::.cpu.data        19570                       # number of demand (read+write) MSHR hits
system.cpu.dcache.demand_mshr_hits::total        19570                       # number of demand (read+write) MSHR hits
system.cpu.dcache.overall_mshr_hits::.cpu.data        19570                       # number of overall MSHR hits
system.cpu.dcache.overall_mshr_hits::total        19570                       # number of overall MSHR hits
system.cpu.dcache.demand_mshr_misses::.cpu.data        53999                       # number of demand (read+write) MSHR misses
system.cpu.dcache.demand_mshr_misses::total        53999                       # number of demand (read+write) MSHR misses
system.cpu.dcache.overall_mshr_misses::.cpu.data        54036                       # number of overall MSHR misses
system.cpu.dcache.overall_mshr_misses::total        54036                       # number of overall MSHR misses
system.cpu.dcache.demand_mshr_miss_latency::.cpu.data   5101073000                       # number of demand (read+write) MSHR miss cycles
system.cpu.dcache.demand_mshr_miss_latency::total   5101073000                       # number of demand (read+write) MSHR miss cycles
system.cpu.dcache.overall_mshr_miss_latency::.cpu.data   5103226000                       # number of overall MSHR miss cycles
system.cpu.dcache.overall_mshr_miss_latency::total   5103226000                       # number of overall MSHR miss cycles
system.cpu.dcache.demand_mshr_miss_rate::.cpu.data     0.001513                       # mshr miss rate for demand accesses
system.cpu.dcache.demand_mshr_miss_rate::total     0.001513                       # mshr miss rate for demand accesses
system.cpu.dcache.overall_mshr_miss_rate::.cpu.data     0.001514                       # mshr miss rate for overall accesses
system.cpu.dcache.overall_mshr_miss_rate::total     0.001514                       # mshr miss rate for overall accesses
system.cpu.dcache.demand_avg_mshr_miss_latency::.cpu.data 94466.064186                       # average overall mshr miss latency
system.cpu.dcache.demand_avg_mshr_miss_latency::total 94466.064186                       # average overall mshr miss latency
system.cpu.dcache.overall_avg_mshr_miss_latency::.cpu.data 94441.224369                       # average overall mshr miss latency
system.cpu.dcache.overall_avg_mshr_miss_latency::total 94441.224369                       # average overall mshr miss latency
system.cpu.dcache.replacements                  53012                       # number of replacements
system.cpu.dcache.ReadReq_hits::.cpu.data     21413654                       # number of ReadReq hits
system.cpu.dcache.ReadReq_hits::total        21413654                       # number of ReadReq hits
system.cpu.dcache.ReadReq_misses::.cpu.data        18222                       # number of ReadReq misses
system.cpu.dcache.ReadReq_misses::total         18222                       # number of ReadReq misses
system.cpu.dcache.ReadReq_miss_latency::.cpu.data   1125931000                       # number of ReadReq miss cycles
system.cpu.dcache.ReadReq_miss_latency::total   1125931000                       # number of ReadReq miss cycles
system.cpu.dcache.ReadReq_accesses::.cpu.data     21431876                       # number of ReadReq accesses(hits+misses)
system.cpu.dcache.ReadReq_accesses::total     21431876                       # number of ReadReq accesses(hits+misses)
system.cpu.dcache.ReadReq_miss_rate::.cpu.data     0.000850                       # miss rate for ReadReq accesses
system.cpu.dcache.ReadReq_miss_rate::total     0.000850                       # miss rate for ReadReq accesses
system.cpu.dcache.ReadReq_avg_miss_latency::.cpu.data 61789.649874                       # average ReadReq miss latency
system.cpu.dcache.ReadReq_avg_miss_latency::total 61789.649874                       # average ReadReq miss latency
system.cpu.dcache.ReadReq_mshr_hits::.cpu.data         3043                       # number of ReadReq MSHR hits
system.cpu.dcache.ReadReq_mshr_hits::total         3043                       # number of ReadReq MSHR hits
system.cpu.dcache.ReadReq_mshr_misses::.cpu.data        15179                       # number of ReadReq MSHR misses
system.cpu.dcache.ReadReq_mshr_misses::total        15179                       # number of ReadReq MSHR misses
system.cpu.dcache.ReadReq_mshr_miss_latency::.cpu.data    996719000                       # number of ReadReq MSHR miss cycles
system.cpu.dcache.ReadReq_mshr_miss_latency::total    996719000                       # number of ReadReq MSHR miss cycles
system.cpu.dcache.ReadReq_mshr_miss_rate::.cpu.data     0.000708                       # mshr miss rate for ReadReq accesses
system.cpu.dcache.ReadReq_mshr_miss_rate::total     0.000708                       # mshr miss rate for ReadReq accesses
system.cpu.dcache.ReadReq_avg_mshr_miss_latency::.cpu.data 65664.338889                       # average ReadReq mshr miss latency
system.cpu.dcache.ReadReq_avg_mshr_miss_latency::total 65664.338889                       # average ReadReq mshr miss latency
system.cpu.dcache.WriteReq_hits::.cpu.data     14198921                       # number of WriteReq hits
system.cpu.dcache.WriteReq_hits::total       14198921                       # number of WriteReq hits
system.cpu.dcache.WriteReq_misses::.cpu.data        55347                       # number of WriteReq misses
system.cpu.dcache.WriteReq_misses::total        55347                       # number of WriteReq misses
system.cpu.dcache.WriteReq_miss_latency::.cpu.data   5379726000                       # number of WriteReq miss cycles
system.cpu.dcache.WriteReq_miss_latency::total   5379726000                       # number of WriteReq miss cycles
system.cpu.dcache.WriteReq_accesses::.cpu.data     14254268                       # number of WriteReq accesses(hits+misses)
system.cpu.dcache.WriteReq_accesses::total     14254268                       # number of WriteReq accesses(hits+misses)
system.cpu.dcache.WriteReq_miss_rate::.cpu.data     0.003883                       # miss rate for WriteReq accesses
system.cpu.dcache.WriteReq_miss_rate::total     0.003883                       # miss rate for WriteReq accesses
system.cpu.dcache.WriteReq_avg_miss_latency::.cpu.data 97199.956637                       # average WriteReq miss latency
system.cpu.dcache.WriteReq_avg_miss_latency::total 97199.956637                       # average WriteReq miss latency
system.cpu.dcache.WriteReq_mshr_hits::.cpu.data        16527                       # number of WriteReq MSHR hits
system.cpu.dcache.WriteReq_mshr_hits::total        16527                       # number of WriteReq MSHR hits
system.cpu.dcache.WriteReq_mshr_misses::.cpu.data        38820                       # number of WriteReq MSHR misses
system.cpu.dcache.WriteReq_mshr_misses::total        38820                       # number of WriteReq MSHR misses
system.cpu.dcache.WriteReq_mshr_miss_latency::.cpu.data   4104354000                       # number of WriteReq MSHR miss cycles
system.cpu.dcache.WriteReq_mshr_miss_latency::total   4104354000                       # number of WriteReq MSHR miss cycles
system.cpu.dcache.WriteReq_mshr_miss_rate::.cpu.data     0.002723                       # mshr miss rate for WriteReq accesses
system.cpu.dcache.WriteReq_mshr_miss_rate::total     0.002723                       # mshr miss rate for WriteReq accesses
system.cpu.dcache.WriteReq_avg_mshr_miss_latency::.cpu.data 105727.820711                       # average WriteReq mshr miss latency
system.cpu.dcache.WriteReq_avg_mshr_miss_latency::total 105727.820711                       # average WriteReq mshr miss latency
system.cpu.dcache.SoftPFReq_hits::.cpu.data         3319                       # number of SoftPFReq hits
system.cpu.dcache.SoftPFReq_hits::total          3319                       # number of SoftPFReq hits
system.cpu.dcache.SoftPFReq_misses::.cpu.data           42                       # number of SoftPFReq misses
system.cpu.dcache.SoftPFReq_misses::total           42                       # number of SoftPFReq misses
system.cpu.dcache.SoftPFReq_accesses::.cpu.data         3361                       # number of SoftPFReq accesses(hits+misses)
system.cpu.dcache.SoftPFReq_accesses::total         3361                       # number of SoftPFReq accesses(hits+misses)
system.cpu.dcache.SoftPFReq_miss_rate::.cpu.data     0.012496                       # miss rate for SoftPFReq accesses
system.cpu.dcache.SoftPFReq_miss_rate::total     0.012496                       # miss rate for SoftPFReq accesses
system.cpu.dcache.SoftPFReq_mshr_misses::.cpu.data           37                       # number of SoftPFReq MSHR misses
system.cpu.dcache.SoftPFReq_mshr_misses::total           37                       # number of SoftPFReq MSHR misses
system.cpu.dcache.SoftPFReq_mshr_miss_latency::.cpu.data      2153000                       # number of SoftPFReq MSHR miss cycles
system.cpu.dcache.SoftPFReq_mshr_miss_latency::total      2153000                       # number of SoftPFReq MSHR miss cycles
system.cpu.dcache.SoftPFReq_mshr_miss_rate::.cpu.data     0.011009                       # mshr miss rate for SoftPFReq accesses
system.cpu.dcache.SoftPFReq_mshr_miss_rate::total     0.011009                       # mshr miss rate for SoftPFReq accesses
system.cpu.dcache.SoftPFReq_avg_mshr_miss_latency::.cpu.data 58189.189189                       # average SoftPFReq mshr miss latency
system.cpu.dcache.SoftPFReq_avg_mshr_miss_latency::total 58189.189189                       # average SoftPFReq mshr miss latency
system.cpu.dcache.LoadLockedReq_hits::.cpu.data        89080                       # number of LoadLockedReq hits
system.cpu.dcache.LoadLockedReq_hits::total        89080                       # number of LoadLockedReq hits
system.cpu.dcache.LoadLockedReq_accesses::.cpu.data        89080                       # number of LoadLockedReq accesses(hits+misses)
system.cpu.dcache.LoadLockedReq_accesses::total        89080                       # number of LoadLockedReq accesses(hits+misses)
system.cpu.dcache.StoreCondReq_hits::.cpu.data        89080                       # number of StoreCondReq hits
system.cpu.dcache.StoreCondReq_hits::total        89080                       # number of StoreCondReq hits
system.cpu.dcache.StoreCondReq_accesses::.cpu.data        89080                       # number of StoreCondReq accesses(hits+misses)
system.cpu.dcache.StoreCondReq_accesses::total        89080                       # number of StoreCondReq accesses(hits+misses)
system.cpu.dcache.power_state.pwrStateResidencyTicks::UNDEFINED 112398437000                       # Cumulative time (in ticks) in various power states
system.cpu.dcache.tags.tagsinuse          1020.885027                       # Cycle average of tags in use
system.cpu.dcache.tags.total_refs            35848090                       # Total number of references to valid blocks.
system.cpu.dcache.tags.sampled_refs             54036                       # Sample count of references to valid blocks.
system.cpu.dcache.tags.avg_refs            663.411244                       # Average number of references to valid blocks.
system.cpu.dcache.tags.warmup_cycle            223000                       # Cycle when the warmup percentage was hit.
system.cpu.dcache.tags.occ_blocks::.cpu.data  1020.885027                       # Average occupied blocks per requestor
system.cpu.dcache.tags.occ_percent::.cpu.data     0.996958                       # Average percentage of cache occupancy
system.cpu.dcache.tags.occ_percent::total     0.996958                       # Average percentage of cache occupancy
system.cpu.dcache.tags.occ_task_id_blocks::1024         1024                       # Occupied blocks per task id
system.cpu.dcache.tags.age_task_id_blocks_1024::0            1                       # Occupied blocks per task id
system.cpu.dcache.tags.age_task_id_blocks_1024::1           22                       # Occupied blocks per task id
system.cpu.dcache.tags.age_task_id_blocks_1024::2          270                       # Occupied blocks per task id
system.cpu.dcache.tags.age_task_id_blocks_1024::3          677                       # Occupied blocks per task id
system.cpu.dcache.tags.age_task_id_blocks_1024::4           54                       # Occupied blocks per task id
system.cpu.dcache.tags.occ_task_id_percent::1024            1                       # Percentage of cache occupancy per task id
system.cpu.dcache.tags.tag_accesses          71789366                       # Number of tag accesses
system.cpu.dcache.tags.data_accesses         71789366                       # Number of data accesses
system.cpu.dcache.tags.power_state.pwrStateResidencyTicks::UNDEFINED 112398437000                       # Cumulative time (in ticks) in various power states
system.cpu.dtb.instHits                             0                       # ITB inst hits
system.cpu.dtb.instMisses                           0                       # ITB inst misses
system.cpu.dtb.readHits                             0                       # DTB read hits
system.cpu.dtb.readMisses                           0                       # DTB read misses
system.cpu.dtb.writeHits                            0                       # DTB write hits
system.cpu.dtb.writeMisses                          0                       # DTB write misses
system.cpu.dtb.inserts                              0                       # Number of times an entry is inserted into the TLB
system.cpu.dtb.flushTlb                             0                       # Number of times complete TLB was flushed
system.cpu.dtb.flushTlbMva                          0                       # Number of times TLB was flushed by MVA
system.cpu.dtb.flushTlbMvaAsid                      0                       # Number of times TLB was flushed by MVA & ASID
system.cpu.dtb.flushTlbAsid                         0                       # Number of times TLB was flushed by ASID
system.cpu.dtb.flushedEntries                       0                       # Number of entries that have been flushed from TLB
system.cpu.dtb.alignFaults                          0                       # Number of TLB faults due to alignment restrictions
system.cpu.dtb.prefetchFaults                       0                       # Number of TLB faults due to prefetch
system.cpu.dtb.domainFaults                         0                       # Number of TLB faults due to domain restrictions
system.cpu.dtb.permsFaults                          0                       # Number of TLB faults due to permissions restrictions
system.cpu.dtb.readAccesses                         0                       # DTB read accesses
system.cpu.dtb.writeAccesses                        0                       # DTB write accesses
system.cpu.dtb.instAccesses                         0                       # ITB inst accesses
system.cpu.dtb.hits                                 0                       # Total TLB (inst and data) hits
system.cpu.dtb.misses                               0                       # Total TLB (inst and data) misses
system.cpu.dtb.accesses                             0                       # Total TLB (inst and data) accesses
system.cpu.dtb.stage2_mmu.stage2_tlb.instHits            0                       # ITB inst hits
system.cpu.dtb.stage2_mmu.stage2_tlb.instMisses            0                       # ITB inst misses
system.cpu.dtb.stage2_mmu.stage2_tlb.readHits            0                       # DTB read hits
system.cpu.dtb.stage2_mmu.stage2_tlb.readMisses            0                       # DTB read misses
system.cpu.dtb.stage2_mmu.stage2_tlb.writeHits            0                       # DTB write hits
system.cpu.dtb.stage2_mmu.stage2_tlb.writeMisses            0                       # DTB write misses
system.cpu.dtb.stage2_mmu.stage2_tlb.inserts            0                       # Number of times an entry is inserted into the TLB
system.cpu.dtb.stage2_mmu.stage2_tlb.flushTlb            0                       # Number of times complete TLB was flushed
system.cpu.dtb.stage2_mmu.stage2_tlb.flushTlbMva            0                       # Number of times TLB was flushed by MVA
system.cpu.dtb.stage2_mmu.stage2_tlb.flushTlbMvaAsid            0                       # Number of times TLB was flushed by MVA & ASID
system.cpu.dtb.stage2_mmu.stage2_tlb.flushTlbAsid            0                       # Number of times TLB was flushed by ASID
system.cpu.dtb.stage2_mmu.stage2_tlb.flushedEntries            0                       # Number of entries that have been flushed from TLB
system.cpu.dtb.stage2_mmu.stage2_tlb.alignFaults            0                       # Number of TLB faults due to alignment restrictions
system.cpu.dtb.stage2_mmu.stage2_tlb.prefetchFaults            0                       # Number of TLB faults due to prefetch
system.cpu.dtb.stage2_mmu.stage2_tlb.domainFaults            0                       # Number of TLB faults due to domain restrictions
system.cpu.dtb.stage2_mmu.stage2_tlb.permsFaults            0                       # Number of TLB faults due to permissions restrictions
system.cpu.dtb.stage2_mmu.stage2_tlb.readAccesses            0                       # DTB read accesses
system.cpu.dtb.stage2_mmu.stage2_tlb.writeAccesses            0                       # DTB write accesses
system.cpu.dtb.stage2_mmu.stage2_tlb.instAccesses            0                       # ITB inst accesses
system.cpu.dtb.stage2_mmu.stage2_tlb.hits            0                       # Total TLB (inst and data) hits
system.cpu.dtb.stage2_mmu.stage2_tlb.misses            0                       # Total TLB (inst and data) misses
system.cpu.dtb.stage2_mmu.stage2_tlb.accesses            0                       # Total TLB (inst and data) accesses
system.cpu.dtb.stage2_mmu.stage2_tlb.walker.walks            0                       # Table walker walks requested
system.cpu.dtb.stage2_mmu.stage2_tlb.walker.requestOrigin_Requested::Data            0                       # Table walker requests started/completed, data/inst
system.cpu.dtb.stage2_mmu.stage2_tlb.walker.requestOrigin_Requested::Inst            0                       # Table walker requests started/completed, data/inst
system.cpu.dtb.stage2_mmu.stage2_tlb.walker.requestOrigin_Requested::total            0                       # Table walker requests started/completed, data/inst
system.cpu.dtb.stage2_mmu.stage2_tlb.walker.requestOrigin_Completed::Data            0                       # Table walker requests started/completed, data/inst
system.cpu.dtb.stage2_mmu.stage2_tlb.walker.requestOrigin_Completed::Inst            0                       # Table walker requests started/completed, data/inst
system.cpu.dtb.stage2_mmu.stage2_tlb.walker.requestOrigin_Completed::total            0                       # Table walker requests started/completed, data/inst
system.cpu.dtb.stage2_mmu.stage2_tlb.walker.requestOrigin::total            0                       # Table walker requests started/completed, data/inst
system.cpu.dtb.stage2_mmu.stage2_tlb.walker.power_state.pwrStateResidencyTicks::UNDEFINED 112398437000                       # Cumulative time (in ticks) in various power states
system.cpu.dtb.walker.walks                         0                       # Table walker walks requested
system.cpu.dtb.walker.requestOrigin_Requested::Data            0                       # Table walker requests started/completed, data/inst
system.cpu.dtb.walker.requestOrigin_Requested::Inst            0                       # Table walker requests started/completed, data/inst
system.cpu.dtb.walker.requestOrigin_Requested::total            0                       # Table walker requests started/completed, data/inst
system.cpu.dtb.walker.requestOrigin_Completed::Data            0                       # Table walker requests started/completed, data/inst
system.cpu.dtb.walker.requestOrigin_Completed::Inst            0                       # Table walker requests started/completed, data/inst
system.cpu.dtb.walker.requestOrigin_Completed::total            0                       # Table walker requests started/completed, data/inst
system.cpu.dtb.walker.requestOrigin::total            0                       # Table walker requests started/completed, data/inst
system.cpu.dtb.walker.power_state.pwrStateResidencyTicks::UNDEFINED 112398437000                       # Cumulative time (in ticks) in various power states
system.cpu.fetch2.intInstructions            49238750                       # Number of integer instructions successfully decoded
system.cpu.fetch2.fpInstructions                    0                       # Number of floating point instructions successfully decoded
system.cpu.fetch2.vecInstructions                   0                       # Number of SIMD instructions successfully decoded
system.cpu.fetch2.loadInstructions           17106566                       # Number of memory load instructions successfully decoded
system.cpu.fetch2.storeInstructions           9764039                       # Number of memory store instructions successfully decoded
system.cpu.fetch2.amoInstructions                   0                       # Number of memory atomic instructions successfully decoded
system.cpu.icache.demand_hits::.cpu.inst     28361711                       # number of demand (read+write) hits
system.cpu.icache.demand_hits::total         28361711                       # number of demand (read+write) hits
system.cpu.icache.overall_hits::.cpu.inst     28361711                       # number of overall hits
system.cpu.icache.overall_hits::total        28361711                       # number of overall hits
system.cpu.icache.demand_misses::.cpu.inst          531                       # number of demand (read+write) misses
system.cpu.icache.demand_misses::total            531                       # number of demand (read+write) misses
system.cpu.icache.overall_misses::.cpu.inst          531                       # number of overall misses
system.cpu.icache.overall_misses::total           531                       # number of overall misses
system.cpu.icache.demand_miss_latency::.cpu.inst     53646000                       # number of demand (read+write) miss cycles
system.cpu.icache.demand_miss_latency::total     53646000                       # number of demand (read+write) miss cycles
system.cpu.icache.overall_miss_latency::.cpu.inst     53646000                       # number of overall miss cycles
system.cpu.icache.overall_miss_latency::total     53646000                       # number of overall miss cycles
system.cpu.icache.demand_accesses::.cpu.inst     28362242                       # number of demand (read+write) accesses
system.cpu.icache.demand_accesses::total     28362242                       # number of demand (read+write) accesses
system.cpu.icache.overall_accesses::.cpu.inst     28362242                       # number of overall (read+write) accesses
system.cpu.icache.overall_accesses::total     28362242                       # number of overall (read+write) accesses
system.cpu.icache.demand_miss_rate::.cpu.inst     0.000019                       # miss rate for demand accesses
system.cpu.icache.demand_miss_rate::total     0.000019                       # miss rate for demand accesses
system.cpu.icache.overall_miss_rate::.cpu.inst     0.000019                       # miss rate for overall accesses
system.cpu.icache.overall_miss_rate::total     0.000019                       # miss rate for overall accesses
system.cpu.icache.demand_avg_miss_latency::.cpu.inst 101028.248588                       # average overall miss latency
system.cpu.icache.demand_avg_miss_latency::total 101028.248588                       # average overall miss latency
system.cpu.icache.overall_avg_miss_latency::.cpu.inst 101028.248588                       # average overall miss latency
system.cpu.icache.overall_avg_miss_latency::total 101028.248588                       # average overall miss latency
system.cpu.icache.blocked_cycles::no_mshrs            0                       # number of cycles access was blocked
system.cpu.icache.blocked_cycles::no_targets            0                       # number of cycles access was blocked
system.cpu.icache.blocked::no_mshrs                 0                       # number of cycles access was blocked
system.cpu.icache.blocked::no_targets               0                       # number of cycles access was blocked
system.cpu.icache.avg_blocked_cycles::no_mshrs          nan                       # average number of cycles each access was blocked
system.cpu.icache.avg_blocked_cycles::no_targets          nan                       # average number of cycles each access was blocked
system.cpu.icache.writebacks::.writebacks           31                       # number of writebacks
system.cpu.icache.writebacks::total                31                       # number of writebacks
system.cpu.icache.demand_mshr_misses::.cpu.inst          531                       # number of demand (read+write) MSHR misses
system.cpu.icache.demand_mshr_misses::total          531                       # number of demand (read+write) MSHR misses
system.cpu.icache.overall_mshr_misses::.cpu.inst          531                       # number of overall MSHR misses
system.cpu.icache.overall_mshr_misses::total          531                       # number of overall MSHR misses
system.cpu.icache.demand_mshr_miss_latency::.cpu.inst     52584000                       # number of demand (read+write) MSHR miss cycles
system.cpu.icache.demand_mshr_miss_latency::total     52584000                       # number of demand (read+write) MSHR miss cycles
system.cpu.icache.overall_mshr_miss_latency::.cpu.inst     52584000                       # number of overall MSHR miss cycles
system.cpu.icache.overall_mshr_miss_latency::total     52584000                       # number of overall MSHR miss cycles
system.cpu.icache.demand_mshr_miss_rate::.cpu.inst     0.000019                       # mshr miss rate for demand accesses
system.cpu.icache.demand_mshr_miss_rate::total     0.000019                       # mshr miss rate for demand accesses
system.cpu.icache.overall_mshr_miss_rate::.cpu.inst     0.000019                       # mshr miss rate for overall accesses
system.cpu.icache.overall_mshr_miss_rate::total     0.000019                       # mshr miss rate for overall accesses
system.cpu.icache.demand_avg_mshr_miss_latency::.cpu.inst 99028.248588                       # average overall mshr miss latency
system.cpu.icache.demand_avg_mshr_miss_latency::total 99028.248588                       # average overall mshr miss latency
system.cpu.icache.overall_avg_mshr_miss_latency::.cpu.inst 99028.248588                       # average overall mshr miss latency
system.cpu.icache.overall_avg_mshr_miss_latency::total 99028.248588                       # average overall mshr miss latency
system.cpu.icache.replacements                     31                       # number of replacements
system.cpu.icache.ReadReq_hits::.cpu.inst     28361711                       # number of ReadReq hits
system.cpu.icache.ReadReq_hits::total        28361711                       # number of ReadReq hits
system.cpu.icache.ReadReq_misses::.cpu.inst          531                       # number of ReadReq misses
system.cpu.icache.ReadReq_misses::total           531                       # number of ReadReq misses
system.cpu.icache.ReadReq_miss_latency::.cpu.inst     53646000                       # number of ReadReq miss cycles
system.cpu.icache.ReadReq_miss_latency::total     53646000                       # number of ReadReq miss cycles
system.cpu.icache.ReadReq_accesses::.cpu.inst     28362242                       # number of ReadReq accesses(hits+misses)
system.cpu.icache.ReadReq_accesses::total     28362242                       # number of ReadReq accesses(hits+misses)
system.cpu.icache.ReadReq_miss_rate::.cpu.inst     0.000019                       # miss rate for ReadReq accesses
system.cpu.icache.ReadReq_miss_rate::total     0.000019                       # miss rate for ReadReq accesses
system.cpu.icache.ReadReq_avg_miss_latency::.cpu.inst 101028.248588                       # average ReadReq miss latency
system.cpu.icache.ReadReq_avg_miss_latency::total 101028.248588                       # average ReadReq miss latency
system.cpu.icache.ReadReq_mshr_misses::.cpu.inst          531                       # number of ReadReq MSHR misses
system.cpu.icache.ReadReq_mshr_misses::total          531                       # number of ReadReq MSHR misses
system.cpu.icache.ReadReq_mshr_miss_latency::.cpu.inst     52584000                       # number of ReadReq MSHR miss cycles
system.cpu.icache.ReadReq_mshr_miss_latency::total     52584000                       # number of ReadReq MSHR miss cycles
system.cpu.icache.ReadReq_mshr_miss_rate::.cpu.inst     0.000019                       # mshr miss rate for ReadReq accesses
system.cpu.icache.ReadReq_mshr_miss_rate::total     0.000019                       # mshr miss rate for ReadReq accesses
system.cpu.icache.ReadReq_avg_mshr_miss_latency::.cpu.inst 99028.248588                       # average ReadReq mshr miss latency
system.cpu.icache.ReadReq_avg_mshr_miss_latency::total 99028.248588                       # average ReadReq mshr miss latency
system.cpu.icache.power_state.pwrStateResidencyTicks::UNDEFINED 112398437000                       # Cumulative time (in ticks) in various power states
system.cpu.icache.tags.tagsinuse           499.271494                       # Cycle average of tags in use
system.cpu.icache.tags.total_refs            28362242                       # Total number of references to valid blocks.
system.cpu.icache.tags.sampled_refs               531                       # Sample count of references to valid blocks.
system.cpu.icache.tags.avg_refs          53412.885122                       # Average number of references to valid blocks.
system.cpu.icache.tags.warmup_cycle            108000                       # Cycle when the warmup percentage was hit.
system.cpu.icache.tags.occ_blocks::.cpu.inst   499.271494                       # Average occupied blocks per requestor
system.cpu.icache.tags.occ_percent::.cpu.inst     0.487570                       # Average percentage of cache occupancy
system.cpu.icache.tags.occ_percent::total     0.487570                       # Average percentage of cache occupancy
system.cpu.icache.tags.occ_task_id_blocks::1024          500                       # Occupied blocks per task id
system.cpu.icache.tags.age_task_id_blocks_1024::4          500                       # Occupied blocks per task id
system.cpu.icache.tags.occ_task_id_percent::1024     0.488281                       # Percentage of cache occupancy per task id
system.cpu.icache.tags.tag_accesses          56725015                       # Number of tag accesses
system.cpu.icache.tags.data_accesses         56725015                       # Number of data accesses
system.cpu.icache.tags.power_state.pwrStateResidencyTicks::UNDEFINED 112398437000                       # Cumulative time (in ticks) in various power states
system.cpu.itb.instHits                             0                       # ITB inst hits
system.cpu.itb.instMisses                           0                       # ITB inst misses
system.cpu.itb.readHits                             0                       # DTB read hits
system.cpu.itb.readMisses                           0                       # DTB read misses
system.cpu.itb.writeHits                            0                       # DTB write hits
system.cpu.itb.writeMisses                          0                       # DTB write misses
system.cpu.itb.inserts                              0                       # Number of times an entry is inserted into the TLB
system.cpu.itb.flushTlb                             0                       # Number of times complete TLB was flushed
system.cpu.itb.flushTlbMva                          0                       # Number of times TLB was flushed by MVA
system.cpu.itb.flushTlbMvaAsid                      0                       # Number of times TLB was flushed by MVA & ASID
system.cpu.itb.flushTlbAsid                         0                       # Number of times TLB was flushed by ASID
system.cpu.itb.flushedEntries                       0                       # Number of entries that have been flushed from TLB
system.cpu.itb.alignFaults                          0                       # Number of TLB faults due to alignment restrictions
system.cpu.itb.prefetchFaults                       0                       # Number of TLB faults due to prefetch
system.cpu.itb.domainFaults                         0                       # Number of TLB faults due to domain restrictions
system.cpu.itb.permsFaults                          0                       # Number of TLB faults due to permissions restrictions
system.cpu.itb.readAccesses                         0                       # DTB read accesses
system.cpu.itb.writeAccesses                        0                       # DTB write accesses
system.cpu.itb.instAccesses                         0                       # ITB inst accesses
system.cpu.itb.hits                                 0                       # Total TLB (inst and data) hits
system.cpu.itb.misses                               0                       # Total TLB (inst and data) misses
system.cpu.itb.accesses                             0                       # Total TLB (inst and data) accesses
system.cpu.itb.stage2_mmu.stage2_tlb.instHits            0                       # ITB inst hits
system.cpu.itb.stage2_mmu.stage2_tlb.instMisses            0                       # ITB inst misses
system.cpu.itb.stage2_mmu.stage2_tlb.readHits            0                       # DTB read hits
system.cpu.itb.stage2_mmu.stage2_tlb.readMisses            0                       # DTB read misses
system.cpu.itb.stage2_mmu.stage2_tlb.writeHits            0                       # DTB write hits
system.cpu.itb.stage2_mmu.stage2_tlb.writeMisses            0                       # DTB write misses
system.cpu.itb.stage2_mmu.stage2_tlb.inserts            0                       # Number of times an entry is inserted into the TLB
system.cpu.itb.stage2_mmu.stage2_tlb.flushTlb            0                       # Number of times complete TLB was flushed
system.cpu.itb.stage2_mmu.stage2_tlb.flushTlbMva            0                       # Number of times TLB was flushed by MVA
system.cpu.itb.stage2_mmu.stage2_tlb.flushTlbMvaAsid            0                       # Number of times TLB was flushed by MVA & ASID
system.cpu.itb.stage2_mmu.stage2_tlb.flushTlbAsid            0                       # Number of times TLB was flushed by ASID
system.cpu.itb.stage2_mmu.stage2_tlb.flushedEntries            0                       # Number of entries that have been flushed from TLB
system.cpu.itb.stage2_mmu.stage2_tlb.alignFaults            0                       # Number of TLB faults due to alignment restrictions
system.cpu.itb.stage2_mmu.stage2_tlb.prefetchFaults            0                       # Number of TLB faults due to prefetch
system.cpu.itb.stage2_mmu.stage2_tlb.domainFaults            0                       # Number of TLB faults due to domain restrictions
system.cpu.itb.stage2_mmu.stage2_tlb.permsFaults            0                       # Number of TLB faults due to permissions restrictions
system.cpu.itb.stage2_mmu.stage2_tlb.readAccesses            0                       # DTB read accesses
system.cpu.itb.stage2_mmu.stage2_tlb.writeAccesses            0                       # DTB write accesses
system.cpu.itb.stage2_mmu.stage2_tlb.instAccesses            0                       # ITB inst accesses
system.cpu.itb.stage2_mmu.stage2_tlb.hits            0                       # Total TLB (inst and data) hits
system.cpu.itb.stage2_mmu.stage2_tlb.misses            0                       # Total TLB (inst and data) misses
system.cpu.itb.stage2_mmu.stage2_tlb.accesses            0                       # Total TLB (inst and data) accesses
system.cpu.itb.stage2_mmu.stage2_tlb.walker.walks            0                       # Table walker walks requested
system.cpu.itb.stage2_mmu.stage2_tlb.walker.requestOrigin_Requested::Data            0                       # Table walker requests started/completed, data/inst
system.cpu.itb.stage2_mmu.stage2_tlb.walker.requestOrigin_Requested::Inst            0                       # Table walker requests started/completed, data/inst
system.cpu.itb.stage2_mmu.stage2_tlb.walker.requestOrigin_Requested::total            0                       # Table walker requests started/completed, data/inst
system.cpu.itb.stage2_mmu.stage2_tlb.walker.requestOrigin_Completed::Data            0                       # Table walker requests started/completed, data/inst
system.cpu.itb.stage2_mmu.stage2_tlb.walker.requestOrigin_Completed::Inst            0                       # Table walker requests started/completed, data/inst
system.cpu.itb.stage2_mmu.stage2_tlb.walker.requestOrigin_Completed::total            0                       # Table walker requests started/completed, data/inst
system.cpu.itb.stage2_mmu.stage2_tlb.walker.requestOrigin::total            0                       # Table walker requests started/completed, data/inst
system.cpu.itb.stage2_mmu.stage2_tlb.walker.power_state.pwrStateResidencyTicks::UNDEFINED 112398437000                       # Cumulative time (in ticks) in various power states
system.cpu.itb.walker.walks                         0                       # Table walker walks requested
system.cpu.itb.walker.requestOrigin_Requested::Data            0                       # Table walker requests started/completed, data/inst
system.cpu.itb.walker.requestOrigin_Requested::Inst            0                       # Table walker requests started/completed, data/inst
system.cpu.itb.walker.requestOrigin_Requested::total            0                       # Table walker requests started/completed, data/inst
system.cpu.itb.walker.requestOrigin_Completed::Data            0                       # Table walker requests started/completed, data/inst
system.cpu.itb.walker.requestOrigin_Completed::Inst            0                       # Table walker requests started/completed, data/inst
system.cpu.itb.walker.requestOrigin_Completed::total            0                       # Table walker requests started/completed, data/inst
system.cpu.itb.walker.requestOrigin::total            0                       # Table walker requests started/completed, data/inst
system.cpu.itb.walker.power_state.pwrStateResidencyTicks::UNDEFINED 112398437000                       # Cumulative time (in ticks) in various power states
system.cpu.power_state.pwrStateResidencyTicks::ON 112398437000                       # Cumulative time (in ticks) in various power states
system.cpu.thread_0.numInsts                100000001                       # Number of Instructions committed
system.cpu.thread_0.numOps                  109431277                       # Number of Ops committed
system.cpu.thread_0.numMemRefs                      0                       # Number of Memory References
system.cpu_clk_domain.clock                      1000                       # Clock period in ticks
system.cpu_voltage_domain.voltage                   1                       # Voltage in Volts
system.l2.demand_hits::.cpu.inst                    9                       # number of demand (read+write) hits
system.l2.demand_hits::.cpu.data                 8187                       # number of demand (read+write) hits
system.l2.demand_hits::total                     8196                       # number of demand (read+write) hits
system.l2.overall_hits::.cpu.inst                   9                       # number of overall hits
system.l2.overall_hits::.cpu.data                8187                       # number of overall hits
system.l2.overall_hits::total                    8196                       # number of overall hits
system.l2.demand_misses::.cpu.inst                522                       # number of demand (read+write) misses
system.l2.demand_misses::.cpu.data              45849                       # number of demand (read+write) misses
system.l2.demand_misses::total                  46371                       # number of demand (read+write) misses
system.l2.overall_misses::.cpu.inst               522                       # number of overall misses
system.l2.overall_misses::.cpu.data             45849                       # number of overall misses
system.l2.overall_misses::total                 46371                       # number of overall misses
system.l2.demand_miss_latency::.cpu.inst     50791000                       # number of demand (read+write) miss cycles
system.l2.demand_miss_latency::.cpu.data   4769154000                       # number of demand (read+write) miss cycles
system.l2.demand_miss_latency::total       4819945000                       # number of demand (read+write) miss cycles
system.l2.overall_miss_latency::.cpu.inst     50791000                       # number of overall miss cycles
system.l2.overall_miss_latency::.cpu.data   4769154000                       # number of overall miss cycles
system.l2.overall_miss_latency::total      4819945000                       # number of overall miss cycles
system.l2.demand_accesses::.cpu.inst              531                       # number of demand (read+write) accesses
system.l2.demand_accesses::.cpu.data            54036                       # number of demand (read+write) accesses
system.l2.demand_accesses::total                54567                       # number of demand (read+write) accesses
system.l2.overall_accesses::.cpu.inst             531                       # number of overall (read+write) accesses
system.l2.overall_accesses::.cpu.data           54036                       # number of overall (read+write) accesses
system.l2.overall_accesses::total               54567                       # number of overall (read+write) accesses
system.l2.demand_miss_rate::.cpu.inst        0.983051                       # miss rate for demand accesses
system.l2.demand_miss_rate::.cpu.data        0.848490                       # miss rate for demand accesses
system.l2.demand_miss_rate::total            0.849799                       # miss rate for demand accesses
system.l2.overall_miss_rate::.cpu.inst       0.983051                       # miss rate for overall accesses
system.l2.overall_miss_rate::.cpu.data       0.848490                       # miss rate for overall accesses
system.l2.overall_miss_rate::total           0.849799                       # miss rate for overall accesses
system.l2.demand_avg_miss_latency::.cpu.inst 97300.766284                       # average overall miss latency
system.l2.demand_avg_miss_latency::.cpu.data 104018.713603                       # average overall miss latency
system.l2.demand_avg_miss_latency::total 103943.089431                       # average overall miss latency
system.l2.overall_avg_miss_latency::.cpu.inst 97300.766284                       # average overall miss latency
system.l2.overall_avg_miss_latency::.cpu.data 104018.713603                       # average overall miss latency
system.l2.overall_avg_miss_latency::total 103943.089431                       # average overall miss latency
system.l2.blocked_cycles::no_mshrs                  0                       # number of cycles access was blocked
system.l2.blocked_cycles::no_targets                0                       # number of cycles access was blocked
system.l2.blocked::no_mshrs                         0                       # number of cycles access was blocked
system.l2.blocked::no_targets                       0                       # number of cycles access was blocked
system.l2.avg_blocked_cycles::no_mshrs            nan                       # average number of cycles each access was blocked
system.l2.avg_blocked_cycles::no_targets          nan                       # average number of cycles each access was blocked
system.l2.writebacks::.writebacks               37494                       # number of writebacks
system.l2.writebacks::total                     37494                       # number of writebacks
system.l2.demand_mshr_hits::.cpu.inst               1                       # number of demand (read+write) MSHR hits
system.l2.demand_mshr_hits::.cpu.data               5                       # number of demand (read+write) MSHR hits
system.l2.demand_mshr_hits::total                   6                       # number of demand (read+write) MSHR hits
system.l2.overall_mshr_hits::.cpu.inst              1                       # number of overall MSHR hits
system.l2.overall_mshr_hits::.cpu.data              5                       # number of overall MSHR hits
system.l2.overall_mshr_hits::total                  6                       # number of overall MSHR hits
system.l2.demand_mshr_misses::.cpu.inst           521                       # number of demand (read+write) MSHR misses
system.l2.demand_mshr_misses::.cpu.data         45844                       # number of demand (read+write) MSHR misses
system.l2.demand_mshr_misses::total             46365                       # number of demand (read+write) MSHR misses
system.l2.overall_mshr_misses::.cpu.inst          521                       # number of overall MSHR misses
system.l2.overall_mshr_misses::.cpu.data        45844                       # number of overall MSHR misses
system.l2.overall_mshr_misses::total            46365                       # number of overall MSHR misses
system.l2.demand_mshr_miss_latency::.cpu.inst     40291000                       # number of demand (read+write) MSHR miss cycles
system.l2.demand_mshr_miss_latency::.cpu.data   3851670000                       # number of demand (read+write) MSHR miss cycles
system.l2.demand_mshr_miss_latency::total   3891961000                       # number of demand (read+write) MSHR miss cycles
system.l2.overall_mshr_miss_latency::.cpu.inst     40291000                       # number of overall MSHR miss cycles
system.l2.overall_mshr_miss_latency::.cpu.data   3851670000                       # number of overall MSHR miss cycles
system.l2.overall_mshr_miss_latency::total   3891961000                       # number of overall MSHR miss cycles
system.l2.demand_mshr_miss_rate::.cpu.inst     0.981168                       # mshr miss rate for demand accesses
system.l2.demand_mshr_miss_rate::.cpu.data     0.848397                       # mshr miss rate for demand accesses
system.l2.demand_mshr_miss_rate::total       0.849689                       # mshr miss rate for demand accesses
system.l2.overall_mshr_miss_rate::.cpu.inst     0.981168                       # mshr miss rate for overall accesses
system.l2.overall_mshr_miss_rate::.cpu.data     0.848397                       # mshr miss rate for overall accesses
system.l2.overall_mshr_miss_rate::total      0.849689                       # mshr miss rate for overall accesses
system.l2.demand_avg_mshr_miss_latency::.cpu.inst 77333.973129                       # average overall mshr miss latency
system.l2.demand_avg_mshr_miss_latency::.cpu.data 84016.883344                       # average overall mshr miss latency
system.l2.demand_avg_mshr_miss_latency::total 83941.787987                       # average overall mshr miss latency
system.l2.overall_avg_mshr_miss_latency::.cpu.inst 77333.973129                       # average overall mshr miss latency
system.l2.overall_avg_mshr_miss_latency::.cpu.data 84016.883344                       # average overall mshr miss latency
system.l2.overall_avg_mshr_miss_latency::total 83941.787987                       # average overall mshr miss latency
system.l2.replacements                          38188                       # number of replacements
system.l2.WritebackDirty_hits::.writebacks        49891                       # number of WritebackDirty hits
system.l2.WritebackDirty_hits::total            49891                       # number of WritebackDirty hits
system.l2.WritebackDirty_accesses::.writebacks        49891                       # number of WritebackDirty accesses(hits+misses)
system.l2.WritebackDirty_accesses::total        49891                       # number of WritebackDirty accesses(hits+misses)
system.l2.WritebackClean_hits::.writebacks           31                       # number of WritebackClean hits
system.l2.WritebackClean_hits::total               31                       # number of WritebackClean hits
system.l2.WritebackClean_accesses::.writebacks           31                       # number of WritebackClean accesses(hits+misses)
system.l2.WritebackClean_accesses::total           31                       # number of WritebackClean accesses(hits+misses)
system.l2.CleanEvict_mshr_misses::.writebacks           52                       # number of CleanEvict MSHR misses
system.l2.CleanEvict_mshr_misses::total            52                       # number of CleanEvict MSHR misses
system.l2.CleanEvict_mshr_miss_rate::.writebacks          inf                       # mshr miss rate for CleanEvict accesses
system.l2.CleanEvict_mshr_miss_rate::total          inf                       # mshr miss rate for CleanEvict accesses
system.l2.ReadExReq_hits::.cpu.data                10                       # number of ReadExReq hits
system.l2.ReadExReq_hits::total                    10                       # number of ReadExReq hits
system.l2.ReadExReq_misses::.cpu.data           38810                       # number of ReadExReq misses
system.l2.ReadExReq_misses::total               38810                       # number of ReadExReq misses
system.l2.ReadExReq_miss_latency::.cpu.data   3987682000                       # number of ReadExReq miss cycles
system.l2.ReadExReq_miss_latency::total    3987682000                       # number of ReadExReq miss cycles
system.l2.ReadExReq_accesses::.cpu.data         38820                       # number of ReadExReq accesses(hits+misses)
system.l2.ReadExReq_accesses::total             38820                       # number of ReadExReq accesses(hits+misses)
system.l2.ReadExReq_miss_rate::.cpu.data     0.999742                       # miss rate for ReadExReq accesses
system.l2.ReadExReq_miss_rate::total         0.999742                       # miss rate for ReadExReq accesses
system.l2.ReadExReq_avg_miss_latency::.cpu.data 102748.827622                       # average ReadExReq miss latency
system.l2.ReadExReq_avg_miss_latency::total 102748.827622                       # average ReadExReq miss latency
system.l2.ReadExReq_mshr_misses::.cpu.data        38810                       # number of ReadExReq MSHR misses
system.l2.ReadExReq_mshr_misses::total          38810                       # number of ReadExReq MSHR misses
system.l2.ReadExReq_mshr_miss_latency::.cpu.data   3211482000                       # number of ReadExReq MSHR miss cycles
system.l2.ReadExReq_mshr_miss_latency::total   3211482000                       # number of ReadExReq MSHR miss cycles
system.l2.ReadExReq_mshr_miss_rate::.cpu.data     0.999742                       # mshr miss rate for ReadExReq accesses
system.l2.ReadExReq_mshr_miss_rate::total     0.999742                       # mshr miss rate for ReadExReq accesses
system.l2.ReadExReq_avg_mshr_miss_latency::.cpu.data 82748.827622                       # average ReadExReq mshr miss latency
system.l2.ReadExReq_avg_mshr_miss_latency::total 82748.827622                       # average ReadExReq mshr miss latency
system.l2.ReadCleanReq_hits::.cpu.inst              9                       # number of ReadCleanReq hits
system.l2.ReadCleanReq_hits::total                  9                       # number of ReadCleanReq hits
system.l2.ReadCleanReq_misses::.cpu.inst          522                       # number of ReadCleanReq misses
system.l2.ReadCleanReq_misses::total              522                       # number of ReadCleanReq misses
system.l2.ReadCleanReq_miss_latency::.cpu.inst     50791000                       # number of ReadCleanReq miss cycles
system.l2.ReadCleanReq_miss_latency::total     50791000                       # number of ReadCleanReq miss cycles
system.l2.ReadCleanReq_accesses::.cpu.inst          531                       # number of ReadCleanReq accesses(hits+misses)
system.l2.ReadCleanReq_accesses::total            531                       # number of ReadCleanReq accesses(hits+misses)
system.l2.ReadCleanReq_miss_rate::.cpu.inst     0.983051                       # miss rate for ReadCleanReq accesses
system.l2.ReadCleanReq_miss_rate::total      0.983051                       # miss rate for ReadCleanReq accesses
system.l2.ReadCleanReq_avg_miss_latency::.cpu.inst 97300.766284                       # average ReadCleanReq miss latency
system.l2.ReadCleanReq_avg_miss_latency::total 97300.766284                       # average ReadCleanReq miss latency
system.l2.ReadCleanReq_mshr_hits::.cpu.inst            1                       # number of ReadCleanReq MSHR hits
system.l2.ReadCleanReq_mshr_hits::total             1                       # number of ReadCleanReq MSHR hits
system.l2.ReadCleanReq_mshr_misses::.cpu.inst          521                       # number of ReadCleanReq MSHR misses
system.l2.ReadCleanReq_mshr_misses::total          521                       # number of ReadCleanReq MSHR misses
system.l2.ReadCleanReq_mshr_miss_latency::.cpu.inst     40291000                       # number of ReadCleanReq MSHR miss cycles
system.l2.ReadCleanReq_mshr_miss_latency::total     40291000                       # number of ReadCleanReq MSHR miss cycles
system.l2.ReadCleanReq_mshr_miss_rate::.cpu.inst     0.981168                       # mshr miss rate for ReadCleanReq accesses
system.l2.ReadCleanReq_mshr_miss_rate::total     0.981168                       # mshr miss rate for ReadCleanReq accesses
system.l2.ReadCleanReq_avg_mshr_miss_latency::.cpu.inst 77333.973129                       # average ReadCleanReq mshr miss latency
system.l2.ReadCleanReq_avg_mshr_miss_latency::total 77333.973129                       # average ReadCleanReq mshr miss latency
system.l2.ReadSharedReq_hits::.cpu.data          8177                       # number of ReadSharedReq hits
system.l2.ReadSharedReq_hits::total              8177                       # number of ReadSharedReq hits
system.l2.ReadSharedReq_misses::.cpu.data         7039                       # number of ReadSharedReq misses
system.l2.ReadSharedReq_misses::total            7039                       # number of ReadSharedReq misses
system.l2.ReadSharedReq_miss_latency::.cpu.data    781472000                       # number of ReadSharedReq miss cycles
system.l2.ReadSharedReq_miss_latency::total    781472000                       # number of ReadSharedReq miss cycles
system.l2.ReadSharedReq_accesses::.cpu.data        15216                       # number of ReadSharedReq accesses(hits+misses)
system.l2.ReadSharedReq_accesses::total         15216                       # number of ReadSharedReq accesses(hits+misses)
system.l2.ReadSharedReq_miss_rate::.cpu.data     0.462605                       # miss rate for ReadSharedReq accesses
system.l2.ReadSharedReq_miss_rate::total     0.462605                       # miss rate for ReadSharedReq accesses
system.l2.ReadSharedReq_avg_miss_latency::.cpu.data 111020.315386                       # average ReadSharedReq miss latency
system.l2.ReadSharedReq_avg_miss_latency::total 111020.315386                       # average ReadSharedReq miss latency
system.l2.ReadSharedReq_mshr_hits::.cpu.data            5                       # number of ReadSharedReq MSHR hits
system.l2.ReadSharedReq_mshr_hits::total            5                       # number of ReadSharedReq MSHR hits
system.l2.ReadSharedReq_mshr_misses::.cpu.data         7034                       # number of ReadSharedReq MSHR misses
system.l2.ReadSharedReq_mshr_misses::total         7034                       # number of ReadSharedReq MSHR misses
system.l2.ReadSharedReq_mshr_miss_latency::.cpu.data    640188000                       # number of ReadSharedReq MSHR miss cycles
system.l2.ReadSharedReq_mshr_miss_latency::total    640188000                       # number of ReadSharedReq MSHR miss cycles
system.l2.ReadSharedReq_mshr_miss_rate::.cpu.data     0.462277                       # mshr miss rate for ReadSharedReq accesses
system.l2.ReadSharedReq_mshr_miss_rate::total     0.462277                       # mshr miss rate for ReadSharedReq accesses
system.l2.ReadSharedReq_avg_mshr_miss_latency::.cpu.data 91013.363662                       # average ReadSharedReq mshr miss latency
system.l2.ReadSharedReq_avg_mshr_miss_latency::total 91013.363662                       # average ReadSharedReq mshr miss latency
system.l2.power_state.pwrStateResidencyTicks::UNDEFINED 112398437000                       # Cumulative time (in ticks) in various power states
system.l2.tags.tagsinuse                  8010.151380                       # Cycle average of tags in use
system.l2.tags.total_refs                      107527                       # Total number of references to valid blocks.
system.l2.tags.sampled_refs                     46380                       # Sample count of references to valid blocks.
system.l2.tags.avg_refs                      2.318392                       # Average number of references to valid blocks.
system.l2.tags.warmup_cycle                     87000                       # Cycle when the warmup percentage was hit.
system.l2.tags.occ_blocks::.writebacks       2.478444                       # Average occupied blocks per requestor
system.l2.tags.occ_blocks::.cpu.inst        22.831177                       # Average occupied blocks per requestor
system.l2.tags.occ_blocks::.cpu.data      7984.841759                       # Average occupied blocks per requestor
system.l2.tags.occ_percent::.writebacks      0.000303                       # Average percentage of cache occupancy
system.l2.tags.occ_percent::.cpu.inst        0.002787                       # Average percentage of cache occupancy
system.l2.tags.occ_percent::.cpu.data        0.974712                       # Average percentage of cache occupancy
system.l2.tags.occ_percent::total            0.977802                       # Average percentage of cache occupancy
system.l2.tags.occ_task_id_blocks::1024          8192                       # Occupied blocks per task id
system.l2.tags.age_task_id_blocks_1024::0            1                       # Occupied blocks per task id
system.l2.tags.age_task_id_blocks_1024::1           18                       # Occupied blocks per task id
system.l2.tags.age_task_id_blocks_1024::2          235                       # Occupied blocks per task id
system.l2.tags.age_task_id_blocks_1024::3         2592                       # Occupied blocks per task id
system.l2.tags.age_task_id_blocks_1024::4         5346                       # Occupied blocks per task id
system.l2.tags.occ_task_id_percent::1024            1                       # Percentage of cache occupancy per task id
system.l2.tags.tag_accesses                    476720                       # Number of tag accesses
system.l2.tags.data_accesses                   476720                       # Number of data accesses
system.l2.tags.power_state.pwrStateResidencyTicks::UNDEFINED 112398437000                       # Cumulative time (in ticks) in various power states
system.mem_ctrls.avgPriority_.writebacks::samples     37494.00                       # Average QoS priority value for accepted requests
system.mem_ctrls.avgPriority_.cpu.inst::samples       521.00                       # Average QoS priority value for accepted requests
system.mem_ctrls.avgPriority_.cpu.data::samples     45828.00                       # Average QoS priority value for accepted requests
system.mem_ctrls.priorityMinLatency      0.000000018750                       # per QoS priority minimum request to response latency (s)
system.mem_ctrls.priorityMaxLatency      0.003047208250                       # per QoS priority maximum request to response latency (s)
system.mem_ctrls.numReadWriteTurnArounds         2097                       # Number of turnarounds from READ to WRITE
system.mem_ctrls.numWriteReadTurnArounds         2097                       # Number of turnarounds from WRITE to READ
system.mem_ctrls.numStayReadState              158483                       # Number of times bus staying in READ state
system.mem_ctrls.numStayWriteState              35461                       # Number of times bus staying in WRITE state
system.mem_ctrls.readReqs                       46365                       # Number of read requests accepted
system.mem_ctrls.writeReqs                      37494                       # Number of write requests accepted
system.mem_ctrls.readBursts                     46365                       # Number of controller read bursts, including those serviced by the write queue
system.mem_ctrls.writeBursts                    37494                       # Number of controller write bursts, including those merged in the write queue
system.mem_ctrls.servicedByWrQ                     16                       # Number of controller read bursts serviced by the write queue
system.mem_ctrls.mergedWrBursts                     0                       # Number of controller write bursts merged with an existing one
system.mem_ctrls.neitherReadNorWriteReqs            0                       # Number of requests that are neither read nor write
system.mem_ctrls.avgRdQLen                       1.05                       # Average read queue length when enqueuing
system.mem_ctrls.avgWrQLen                      23.43                       # Average write queue length when enqueuing
system.mem_ctrls.numRdRetry                         0                       # Number of times read queue was full causing retry
system.mem_ctrls.numWrRetry                         0                       # Number of times write queue was full causing retry
system.mem_ctrls.readPktSize::0                     0                       # Read request sizes (log2)
system.mem_ctrls.readPktSize::1                     0                       # Read request sizes (log2)
system.mem_ctrls.readPktSize::2                     0                       # Read request sizes (log2)
system.mem_ctrls.readPktSize::3                     0                       # Read request sizes (log2)
system.mem_ctrls.readPktSize::4                     0                       # Read request sizes (log2)
system.mem_ctrls.readPktSize::5                     0                       # Read request sizes (log2)
system.mem_ctrls.readPktSize::6                 46365                       # Read request sizes (log2)
system.mem_ctrls.writePktSize::0                    0                       # Write request sizes (log2)
system.mem_ctrls.writePktSize::1                    0                       # Write request sizes (log2)
system.mem_ctrls.writePktSize::2                    0                       # Write request sizes (log2)
system.mem_ctrls.writePktSize::3                    0                       # Write request sizes (log2)
system.mem_ctrls.writePktSize::4                    0                       # Write request sizes (log2)
system.mem_ctrls.writePktSize::5                    0                       # Write request sizes (log2)
system.mem_ctrls.writePktSize::6                37494                       # Write request sizes (log2)
system.mem_ctrls.rdQLenPdf::0                   44557                       # What read queue length does an incoming req see
system.mem_ctrls.rdQLenPdf::1                    1786                       # What read queue length does an incoming req see
system.mem_ctrls.rdQLenPdf::2                       6                       # What read queue length does an incoming req see
system.mem_ctrls.rdQLenPdf::3                       0                       # What read queue length does an incoming req see
[...]
system.mem_ctrls.dram.bw_write::.writebacks     21349194                       # Write bandwidth from this memory (bytes/s)
system.mem_ctrls.dram.bw_write::total        21349194                       # Write bandwidth from this memory (bytes/s)
system.mem_ctrls.dram.bw_total::.writebacks     21349194                       # Total bandwidth to/from this memory (bytes/s)
system.mem_ctrls.dram.bw_total::.cpu.inst       296659                       # Total bandwidth to/from this memory (bytes/s)
system.mem_ctrls.dram.bw_total::.cpu.data     26103708                       # Total bandwidth to/from this memory (bytes/s)
system.mem_ctrls.dram.bw_total::total        47749561                       # Total bandwidth to/from this memory (bytes/s)
system.mem_ctrls.dram.readBursts                46349                       # Number of DRAM read bursts
system.mem_ctrls.dram.writeBursts               37467                       # Number of DRAM write bursts
system.mem_ctrls.dram.perBankRdBursts::0         2957                       # Per bank write bursts
system.mem_ctrls.dram.perBankRdBursts::1         2809                       # Per bank write bursts
system.mem_ctrls.dram.perBankRdBursts::2         2873                       # Per bank write bursts
system.mem_ctrls.dram.perBankRdBursts::3         2968                       # Per bank write bursts
system.mem_ctrls.dram.perBankRdBursts::4         2966                       # Per bank write bursts
system.mem_ctrls.dram.perBankRdBursts::5         2726                       # Per bank write bursts
system.mem_ctrls.dram.perBankRdBursts::6         2863                       # Per bank write bursts
system.mem_ctrls.dram.perBankRdBursts::7         3016                       # Per bank write bursts
system.mem_ctrls.dram.perBankRdBursts::8         2838                       # Per bank write bursts
system.mem_ctrls.dram.perBankRdBursts::9         2881                       # Per bank write bursts
system.mem_ctrls.dram.perBankRdBursts::10         2984                       # Per bank write bursts
system.mem_ctrls.dram.perBankRdBursts::11         2895                       # Per bank write bursts
system.mem_ctrls.dram.perBankRdBursts::12         2881                       # Per bank write bursts
system.mem_ctrls.dram.perBankRdBursts::13         2941                       # Per bank write bursts
system.mem_ctrls.dram.perBankRdBursts::14         2886                       # Per bank write bursts
system.mem_ctrls.dram.perBankRdBursts::15         2865                       # Per bank write bursts
system.mem_ctrls.dram.perBankWrBursts::0         2397                       # Per bank write bursts
system.mem_ctrls.dram.perBankWrBursts::1         2253                       # Per bank write bursts
system.mem_ctrls.dram.perBankWrBursts::2         2342                       # Per bank write bursts
system.mem_ctrls.dram.perBankWrBursts::3         2347                       # Per bank write bursts
system.mem_ctrls.dram.perBankWrBursts::4         2373                       # Per bank write bursts
system.mem_ctrls.dram.perBankWrBursts::5         2212                       # Per bank write bursts
system.mem_ctrls.dram.perBankWrBursts::6         2353                       # Per bank write bursts
system.mem_ctrls.dram.perBankWrBursts::7         2476                       # Per bank write bursts
system.mem_ctrls.dram.perBankWrBursts::8         2299                       # Per bank write bursts
system.mem_ctrls.dram.perBankWrBursts::9         2315                       # Per bank write bursts
system.mem_ctrls.dram.perBankWrBursts::10         2432                       # Per bank write bursts
system.mem_ctrls.dram.perBankWrBursts::11         2320                       # Per bank write bursts
system.mem_ctrls.dram.perBankWrBursts::12         2319                       # Per bank write bursts
system.mem_ctrls.dram.perBankWrBursts::13         2406                       # Per bank write bursts
system.mem_ctrls.dram.perBankWrBursts::14         2300                       # Per bank write bursts
system.mem_ctrls.dram.perBankWrBursts::15         2323                       # Per bank write bursts
system.mem_ctrls.dram.totQLat               640406500                       # Total ticks spent queuing
system.mem_ctrls.dram.totBusLat             231745000                       # Total ticks spent in databus transfers
system.mem_ctrls.dram.totMemAccLat         1509450250                       # Total ticks spent from burst creation until serviced by the DRAM
system.mem_ctrls.dram.avgQLat                13817.05                       # Average queueing delay per DRAM burst
system.mem_ctrls.dram.avgBusLat               5000.00                       # Average bus latency per DRAM burst
system.mem_ctrls.dram.avgMemAccLat           32567.05                       # Average memory access latency per DRAM burst
system.mem_ctrls.dram.readRowHits               21290                       # Number of row buffer hits during reads
system.mem_ctrls.dram.writeRowHits              26270                       # Number of row buffer hits during writes
system.mem_ctrls.dram.readRowHitRate            45.93                       # Row buffer hit rate for reads
system.mem_ctrls.dram.writeRowHitRate           70.12                       # Row buffer hit rate for writes
system.mem_ctrls.dram.bytesPerActivate::samples        36256                       # Bytes accessed per row activation
system.mem_ctrls.dram.bytesPerActivate::mean   147.954104                       # Bytes accessed per row activation
system.mem_ctrls.dram.bytesPerActivate::gmean   105.195047                       # Bytes accessed per row activation
system.mem_ctrls.dram.bytesPerActivate::stdev   174.380426                       # Bytes accessed per row activation
system.mem_ctrls.dram.bytesPerActivate::0-127        20736     57.19%     57.19% # Bytes accessed per row activation
system.mem_ctrls.dram.bytesPerActivate::128-255        10308     28.43%     85.62% # Bytes accessed per row activation
system.mem_ctrls.dram.bytesPerActivate::256-383         1780      4.91%     90.53% # Bytes accessed per row activation
system.mem_ctrls.dram.bytesPerActivate::384-511         1314      3.62%     94.16% # Bytes accessed per row activation
system.mem_ctrls.dram.bytesPerActivate::512-639          820      2.26%     96.42% # Bytes accessed per row activation
system.mem_ctrls.dram.bytesPerActivate::640-767          353      0.97%     97.39% # Bytes accessed per row activation
system.mem_ctrls.dram.bytesPerActivate::768-895          277      0.76%     98.16% # Bytes accessed per row activation
system.mem_ctrls.dram.bytesPerActivate::896-1023          183      0.50%     98.66% # Bytes accessed per row activation
system.mem_ctrls.dram.bytesPerActivate::1024-1151          485      1.34%    100.00% # Bytes accessed per row activation
system.mem_ctrls.dram.bytesPerActivate::total        36256                       # Bytes accessed per row activation
system.mem_ctrls.dram.bytesRead               2966336                       # Total number of bytes read from DRAM
system.mem_ctrls.dram.bytesWritten            2397888                       # Total number of bytes written to DRAM
system.mem_ctrls.dram.avgRdBW               26.391257                       # Average DRAM read bandwidth in MiBytes/s
system.mem_ctrls.dram.avgWrBW               21.333820                       # Average DRAM write bandwidth in MiBytes/s
system.mem_ctrls.dram.peakBW                 12800.00                       # Theoretical peak bandwidth in MiByte/s
system.mem_ctrls.dram.busUtil                    0.37                       # Data bus utilization in percentage
system.mem_ctrls.dram.busUtilRead                0.21                       # Data bus utilization in percentage for reads
system.mem_ctrls.dram.busUtilWrite               0.17                       # Data bus utilization in percentage for writes
system.mem_ctrls.dram.pageHitRate               56.74                       # Row buffer hit rate, read and write combined
system.mem_ctrls.dram.power_state.pwrStateResidencyTicks::UNDEFINED 112398437000                       # Cumulative time (in ticks) in various power states
system.mem_ctrls.dram.rank0.actEnergy       131804400                       # Energy for activate commands per rank (pJ)
system.mem_ctrls.dram.rank0.preEnergy        70055700                       # Energy for precharge commands per rank (pJ)
system.mem_ctrls.dram.rank0.readEnergy      165490920                       # Energy for read commands per rank (pJ)
system.mem_ctrls.dram.rank0.writeEnergy      97890660                       # Energy for write commands per rank (pJ)
system.mem_ctrls.dram.rank0.refreshEnergy 8872328400.000002                       # Energy for refresh commands per rank (pJ)
system.mem_ctrls.dram.rank0.actBackEnergy  23675226450                       # Energy for active background per rank (pJ)
system.mem_ctrls.dram.rank0.preBackEnergy  23223967200                       # Energy for precharge background per rank (pJ)
system.mem_ctrls.dram.rank0.actPowerDownEnergy            0                       # Energy for active power-down per rank (pJ)
system.mem_ctrls.dram.rank0.prePowerDownEnergy            0                       # Energy for precharge power-down per rank (pJ)
system.mem_ctrls.dram.rank0.selfRefreshEnergy            0                       # Energy for self refresh per rank (pJ)
system.mem_ctrls.dram.rank0.totalEnergy   56236763730                       # Total energy per rank (pJ)
system.mem_ctrls.dram.rank0.averagePower   500.334037                       # Core power per rank (mW)
system.mem_ctrls.dram.rank0.totalIdleTime            0                       # Total Idle time Per DRAM Rank
system.mem_ctrls.dram.rank0.pwrStateTime::IDLE  60140972750                       # Time in different power states
system.mem_ctrls.dram.rank0.pwrStateTime::REF   3753100000                       # Time in different power states
system.mem_ctrls.dram.rank0.pwrStateTime::SREF            0                       # Time in different power states
system.mem_ctrls.dram.rank0.pwrStateTime::PRE_PDN            0                       # Time in different power states
system.mem_ctrls.dram.rank0.pwrStateTime::ACT  48504364250                       # Time in different power states
system.mem_ctrls.dram.rank0.pwrStateTime::ACT_PDN            0                       # Time in different power states
system.mem_ctrls.dram.rank1.actEnergy       127063440                       # Energy for activate commands per rank (pJ)
system.mem_ctrls.dram.rank1.preEnergy        67535820                       # Energy for precharge commands per rank (pJ)
system.mem_ctrls.dram.rank1.readEnergy      165440940                       # Energy for read commands per rank (pJ)
system.mem_ctrls.dram.rank1.writeEnergy      97687080                       # Energy for write commands per rank (pJ)
system.mem_ctrls.dram.rank1.refreshEnergy 8872328400.000002                       # Energy for refresh commands per rank (pJ)
system.mem_ctrls.dram.rank1.actBackEnergy  23916449310                       # Energy for active background per rank (pJ)
system.mem_ctrls.dram.rank1.preBackEnergy  23020832160                       # Energy for precharge background per rank (pJ)
system.mem_ctrls.dram.rank1.actPowerDownEnergy            0                       # Energy for active power-down per rank (pJ)
system.mem_ctrls.dram.rank1.prePowerDownEnergy            0                       # Energy for precharge power-down per rank (pJ)
system.mem_ctrls.dram.rank1.selfRefreshEnergy            0                       # Energy for self refresh per rank (pJ)
system.mem_ctrls.dram.rank1.totalEnergy   56267337150                       # Total energy per rank (pJ)
system.mem_ctrls.dram.rank1.averagePower   500.606046                       # Core power per rank (mW)
system.mem_ctrls.dram.rank1.totalIdleTime            0                       # Total Idle time Per DRAM Rank
system.mem_ctrls.dram.rank1.pwrStateTime::IDLE  59608144750                       # Time in different power states
system.mem_ctrls.dram.rank1.pwrStateTime::REF   3753100000                       # Time in different power states
system.mem_ctrls.dram.rank1.pwrStateTime::SREF            0                       # Time in different power states
system.mem_ctrls.dram.rank1.pwrStateTime::PRE_PDN            0                       # Time in different power states
system.mem_ctrls.dram.rank1.pwrStateTime::ACT  49037192250                       # Time in different power states
system.mem_ctrls.dram.rank1.pwrStateTime::ACT_PDN            0                       # Time in different power states
system.mem_ctrls.power_state.pwrStateResidencyTicks::UNDEFINED 112398437000                       # Cumulative time (in ticks) in various power states
system.membus.trans_dist::ReadResp               7555                       # Transaction distribution
system.membus.trans_dist::WritebackDirty        37494                       # Transaction distribution
system.membus.trans_dist::CleanEvict              143                       # Transaction distribution
system.membus.trans_dist::ReadExReq             38810                       # Transaction distribution
system.membus.trans_dist::ReadExResp            38810                       # Transaction distribution
system.membus.trans_dist::ReadSharedReq          7555                       # Transaction distribution
system.membus.pkt_count_system.l2.mem_side_port::system.mem_ctrls.port       130367                       # Packet count per connected requestor and responder (bytes)
system.membus.pkt_count::total                 130367                       # Packet count per connected requestor and responder (bytes)
system.membus.pkt_size_system.l2.mem_side_port::system.mem_ctrls.port      5366976                       # Cumulative packet size per connected requestor and responder (bytes)
system.membus.pkt_size::total                 5366976                       # Cumulative packet size per connected requestor and responder (bytes)
system.membus.snoops                                0                       # Total snoops (count)
system.membus.snoopTraffic                          0                       # Total snoop traffic (bytes)
system.membus.snoop_fanout::samples             46365                       # Request fanout histogram
system.membus.snoop_fanout::mean                    0                       # Request fanout histogram
system.membus.snoop_fanout::stdev                   0                       # Request fanout histogram
system.membus.snoop_fanout::underflows              0      0.00%      0.00% # Request fanout histogram
system.membus.snoop_fanout::0                   46365    100.00%    100.00% # Request fanout histogram
system.membus.snoop_fanout::1                       0      0.00%    100.00% # Request fanout histogram
system.membus.snoop_fanout::overflows               0      0.00%    100.00% # Request fanout histogram
system.membus.snoop_fanout::min_value               0                       # Request fanout histogram
system.membus.snoop_fanout::max_value               0                       # Request fanout histogram
system.membus.snoop_fanout::total               46365                       # Request fanout histogram
system.membus.power_state.pwrStateResidencyTicks::UNDEFINED 112398437000                       # Cumulative time (in ticks) in various power states
system.membus.reqLayer0.occupancy           233978000                       # Layer occupancy (ticks)
system.membus.reqLayer0.utilization               0.2                       # Layer utilization (%)
system.membus.respLayer1.occupancy          249851500                       # Layer occupancy (ticks)
system.membus.respLayer1.utilization              0.2                       # Layer utilization (%)
system.tol2bus.trans_dist::ReadResp             15747                       # Transaction distribution
system.tol2bus.trans_dist::WritebackDirty        87385                       # Transaction distribution
system.tol2bus.trans_dist::WritebackClean           31                       # Transaction distribution
system.tol2bus.trans_dist::CleanEvict            3815                       # Transaction distribution
system.tol2bus.trans_dist::ReadExReq            38820                       # Transaction distribution
system.tol2bus.trans_dist::ReadExResp           38820                       # Transaction distribution
system.tol2bus.trans_dist::ReadCleanReq           531                       # Transaction distribution
system.tol2bus.trans_dist::ReadSharedReq        15216                       # Transaction distribution
system.tol2bus.pkt_count_system.cpu.icache.mem_side_port::system.l2.cpu_side_port         1093                       # Packet count per connected requestor and responder (bytes)
system.tol2bus.pkt_count_system.cpu.dcache.mem_side_port::system.l2.cpu_side_port       161084                       # Packet count per connected requestor and responder (bytes)
system.tol2bus.pkt_count::total                162177                       # Packet count per connected requestor and responder (bytes)
system.tol2bus.pkt_size_system.cpu.icache.mem_side_port::system.l2.cpu_side_port        35968                       # Cumulative packet size per connected requestor and responder (bytes)
system.tol2bus.pkt_size_system.cpu.dcache.mem_side_port::system.l2.cpu_side_port      6651328                       # Cumulative packet size per connected requestor and responder (bytes)
system.tol2bus.pkt_size::total                6687296                       # Cumulative packet size per connected requestor and responder (bytes)
system.tol2bus.snoops                           38188                       # Total snoops (count)
system.tol2bus.snoopTraffic                   2399616                       # Total snoop traffic (bytes)
system.tol2bus.snoop_fanout::samples            92755                       # Request fanout histogram
system.tol2bus.snoop_fanout::mean            0.006878                       # Request fanout histogram
system.tol2bus.snoop_fanout::stdev           0.083429                       # Request fanout histogram
system.tol2bus.snoop_fanout::underflows             0      0.00%      0.00% # Request fanout histogram
system.tol2bus.snoop_fanout::0                  92123     99.32%     99.32% # Request fanout histogram
system.tol2bus.snoop_fanout::1                    626      0.67%     99.99% # Request fanout histogram
system.tol2bus.snoop_fanout::2                      6      0.01%    100.00% # Request fanout histogram
system.tol2bus.snoop_fanout::overflows              0      0.00%    100.00% # Request fanout histogram
system.tol2bus.snoop_fanout::min_value              0                       # Request fanout histogram
system.tol2bus.snoop_fanout::max_value              2                       # Request fanout histogram
system.tol2bus.snoop_fanout::total              92755                       # Request fanout histogram
system.tol2bus.power_state.pwrStateResidencyTicks::UNDEFINED 112398437000                       # Cumulative time (in ticks) in various power states
system.tol2bus.reqLayer0.occupancy          207454000                       # Layer occupancy (ticks)
system.tol2bus.reqLayer0.utilization              0.2                       # Layer utilization (%)
system.tol2bus.respLayer0.occupancy           1593999                       # Layer occupancy (ticks)
system.tol2bus.respLayer0.utilization             0.0                       # Layer utilization (%)
system.tol2bus.respLayer1.occupancy         162112995                       # Layer occupancy (ticks)
system.tol2bus.respLayer1.utilization             0.1                       # Layer utilization (%)
system.voltage_domain.voltage                       1                       # Voltage in Volts

---------- End Simulation Statistics   ----------
