
---------- Begin Simulation Statistics ----------
final_tick                               140123931000                       # Number of ticks from beginning of simulation (restored from checkpoints and never reset)
host_inst_rate                                 340689                       # Simulator instruction rate (inst/s)
host_mem_usage                                 664528                       # Number of bytes of host memory used
host_op_rate                                   398015                       # Simulator op (including micro ops) rate (op/s)
host_seconds                                   293.52                       # Real time elapsed on the host
host_tick_rate                              477386864                       # Simulator tick rate (ticks/s)
sim_freq                                 1000000000000                       # Frequency of simulated ticks
sim_insts                                   100000000                       # Number of instructions simulated
sim_ops                                     116826593                       # Number of ops (including micro ops) simulated
sim_seconds                                  0.140124                       # Number of seconds simulated
sim_ticks                                140123931000                       # Number of ticks simulated
system.cpu.committedInsts                   100000000                       # Number of instructions committed
system.cpu.committedOps                     116826593                       # Number of ops (including micro ops) committed
system.cpu.cpi                               1.401239                       # CPI: cycles per instruction
system.cpu.discardedOps                        503892                       # Number of ops (including micro ops) which were discarded before commit
system.cpu.idleCycles                         5030924                       # Total number of cycles that the object has spent stopped
system.cpu.ipc                               0.713654                       # IPC: instructions per cycle
system.cpu.numCycles                        140123931                       # number of cpu cycles simulated
system.cpu.numFetchSuspends                         0                       # Number of times Execute suspended instruction fetching
system.cpu.numWorkItemsCompleted                    0                       # number of work items this cpu completed
system.cpu.numWorkItemsStarted                      0                       # number of work items this cpu started
system.cpu.op_class_0::No_OpClass                   0      0.00%      0.00% # Class of committed instruction
system.cpu.op_class_0::IntAlu                65231396     55.84%     55.84% # Class of committed instruction
system.cpu.op_class_0::IntMult                 602374      0.52%     56.35% # Class of committed instruction
system.cpu.op_class_0::IntDiv                       0      0.00%     56.35% # Class of committed instruction
system.cpu.op_class_0::FloatAdd                     0      0.00%     56.35% # Class of committed instruction
system.cpu.op_class_0::FloatCmp                     0      0.00%     56.35% # Class of committed instruction
system.cpu.op_class_0::FloatCvt                     0      0.00%     56.35% # Class of committed instruction
system.cpu.op_class_0::FloatMult                    0      0.00%     56.35% # Class of committed instruction
system.cpu.op_class_0::FloatMultAcc                 0      0.00%     56.35% # Class of committed instruction
system.cpu.op_class_0::FloatDiv                     0      0.00%     56.35% # Class of committed instruction
system.cpu.op_class_0::FloatMisc                    0      0.00%     56.35% # Class of committed instruction
system.cpu.op_class_0::FloatSqrt                    0      0.00%     56.35% # Class of committed instruction
system.cpu.op_class_0::SimdAdd                    380      0.00%     56.35% # Class of committed instruction
system.cpu.op_class_0::SimdAddAcc                   0      0.00%     56.35% # Class of committed instruction
system.cpu.op_class_0::SimdAlu                    470      0.00%     56.35% # Class of committed instruction
system.cpu.op_class_0::SimdCmp                    382      0.00%     56.35% # Class of committed instruction
system.cpu.op_class_0::SimdCvt                      0      0.00%     56.35% # Class of committed instruction
system.cpu.op_class_0::SimdMisc                    53      0.00%     56.35% # Class of committed instruction
system.cpu.op_class_0::SimdMult                     0      0.00%     56.35% # Class of committed instruction
system.cpu.op_class_0::SimdMultAcc                  0      0.00%     56.35% # Class of committed instruction
system.cpu.op_class_0::SimdShift                    0      0.00%     56.35% # Class of committed instruction
system.cpu.op_class_0::SimdShiftAcc                 0      0.00%     56.35% # Class of committed instruction
system.cpu.op_class_0::SimdDiv                      0      0.00%     56.35% # Class of committed instruction
system.cpu.op_class_0::SimdSqrt                     0      0.00%     56.35% # Class of committed instruction
system.cpu.op_class_0::SimdFloatAdd            783705      0.67%     57.02% # Class of committed instruction
system.cpu.op_class_0::SimdFloatAlu                 0      0.00%     57.02% # Class of committed instruction
system.cpu.op_class_0::SimdFloatCmp            769156      0.66%     57.68% # Class of committed instruction
system.cpu.op_class_0::SimdFloatCvt            311548      0.27%     57.95% # Class of committed instruction
system.cpu.op_class_0::SimdFloatDiv            152211      0.13%     58.08% # Class of committed instruction
system.cpu.op_class_0::SimdFloatMisc           950762      0.81%     58.89% # Class of committed instruction
system.cpu.op_class_0::SimdFloatMult            86008      0.07%     58.97% # Class of committed instruction
system.cpu.op_class_0::SimdFloatMultAcc         12802      0.01%     58.98% # Class of committed instruction
system.cpu.op_class_0::SimdFloatSqrt                0      0.00%     58.98% # Class of committed instruction
system.cpu.op_class_0::SimdReduceAdd                0      0.00%     58.98% # Class of committed instruction
system.cpu.op_class_0::SimdReduceAlu                0      0.00%     58.98% # Class of committed instruction
system.cpu.op_class_0::SimdReduceCmp                0      0.00%     58.98% # Class of committed instruction
system.cpu.op_class_0::SimdFloatReduceAdd            0      0.00%     58.98% # Class of committed instruction
system.cpu.op_class_0::SimdFloatReduceCmp            0      0.00%     58.98% # Class of committed instruction
system.cpu.op_class_0::SimdAes                      0      0.00%     58.98% # Class of committed instruction
system.cpu.op_class_0::SimdAesMix                   0      0.00%     58.98% # Class of committed instruction
system.cpu.op_class_0::SimdSha1Hash                 0      0.00%     58.98% # Class of committed instruction
system.cpu.op_class_0::SimdSha1Hash2                0      0.00%     58.98% # Class of committed instruction
system.cpu.op_class_0::SimdSha256Hash               0      0.00%     58.98% # Class of committed instruction
system.cpu.op_class_0::SimdSha256Hash2              0      0.00%     58.98% # Class of committed instruction
system.cpu.op_class_0::SimdShaSigma2                0      0.00%     58.98% # Class of committed instruction
system.cpu.op_class_0::SimdShaSigma3                0      0.00%     58.98% # Class of committed instruction
system.cpu.op_class_0::SimdPredAlu                  0      0.00%     58.98% # Class of committed instruction
system.cpu.op_class_0::MemRead               30319972     25.95%     84.93% # Class of committed instruction
system.cpu.op_class_0::MemWrite              17605374     15.07%    100.00% # Class of committed instruction
system.cpu.op_class_0::FloatMemRead                 0      0.00%    100.00% # Class of committed instruction
system.cpu.op_class_0::FloatMemWrite                0      0.00%    100.00% # Class of committed instruction
system.cpu.op_class_0::IprAccess                    0      0.00%    100.00% # Class of committed instruction
system.cpu.op_class_0::InstPrefetch                 0      0.00%    100.00% # Class of committed instruction
system.cpu.op_class_0::total                116826593                       # Class of committed instruction
system.cpu.tickCycles                       135093007                       # Number of cycles that the object actually ticked
system.cpu.workload.numSyscalls                    33                       # Number of system calls
system.membus.snoop_filter.hit_multi_requests            0                       # Number of requests hitting in the snoop filter with multiple (>1) holders of the requested data.
system.membus.snoop_filter.hit_multi_snoops            0                       # Number of snoops hitting in the snoop filter with multiple (>1) holders of the requested data.
system.membus.snoop_filter.hit_single_requests            0                       # Number of requests hitting in the snoop filter with a single holder of the requested data.
system.membus.snoop_filter.hit_single_snoops            0                       # Number of snoops hitting in the snoop filter with a single holder of the requested data.
system.membus.snoop_filter.tot_requests          5649                       # Total number of requests made to the snoop filter.
system.membus.snoop_filter.tot_snoops               0                       # Total number of snoops made to the snoop filter.
system.tol2bus.snoop_filter.hit_multi_requests         1904                       # Number of requests hitting in the snoop filter with multiple (>1) holders of the requested data.
system.tol2bus.snoop_filter.hit_multi_snoops            0                       # Number of snoops hitting in the snoop filter with multiple (>1) holders of the requested data.
system.tol2bus.snoop_filter.hit_single_requests       174249                       # Number of requests hitting in the snoop filter with a single holder of the requested data.
system.tol2bus.snoop_filter.hit_single_snoops            0                       # Number of snoops hitting in the snoop filter with a single holder of the requested data.
system.tol2bus.snoop_filter.tot_requests       350326                       # Total number of requests made to the snoop filter.
system.tol2bus.snoop_filter.tot_snoops              0                       # Total number of snoops made to the snoop filter.
system.clk_domain.clock                          1000                       # Clock period in ticks
system.cpu.branchPred.lookups                 6105039                       # Number of BP lookups
system.cpu.branchPred.condPredicted           5266473                       # Number of conditional branches predicted
system.cpu.branchPred.condIncorrect            188552                       # Number of conditional branches incorrect
system.cpu.branchPred.BTBLookups              3813540                       # Number of BTB lookups
system.cpu.branchPred.BTBHits                 3808602                       # Number of BTB hits
system.cpu.branchPred.BTBHitPct             99.870514                       # BTB Hit Percentage
system.cpu.branchPred.RASUsed                  257424                       # Number of times the RAS was used to get a target.
system.cpu.branchPred.RASIncorrect                  3                       # Number of incorrect RAS predictions.
system.cpu.branchPred.indirectLookups          154321                       # Number of indirect predictor lookups.
system.cpu.branchPred.indirectHits                236                       # Number of indirect target hits.
system.cpu.branchPred.indirectMisses           154085                       # Number of indirect misses.
system.cpu.branchPred.indirectMispredicted          199                       # Number of mispredicted indirect branches.
system.cpu.dcache.demand_hits::.cpu.data     47486389                       # number of demand (read+write) hits
system.cpu.dcache.demand_hits::total         47486389                       # number of demand (read+write) hits
system.cpu.dcache.overall_hits::.cpu.data     47511351                       # number of overall hits
system.cpu.dcache.overall_hits::total        47511351                       # number of overall hits
system.cpu.dcache.demand_misses::.cpu.data       296024                       # number of demand (read+write) misses
system.cpu.dcache.demand_misses::total         296024                       # number of demand (read+write) misses
system.cpu.dcache.overall_misses::.cpu.data       296282                       # number of overall misses
system.cpu.dcache.overall_misses::total        296282                       # number of overall misses
system.cpu.dcache.demand_miss_latency::.cpu.data   6919213000                       # number of demand (read+write) miss cycles
system.cpu.dcache.demand_miss_latency::total   6919213000                       # number of demand (read+write) miss cycles
system.cpu.dcache.overall_miss_latency::.cpu.data   6919213000                       # number of overall miss cycles
system.cpu.dcache.overall_miss_latency::total   6919213000                       # number of overall miss cycles
system.cpu.dcache.demand_accesses::.cpu.data     47782413                       # number of demand (read+write) accesses
system.cpu.dcache.demand_accesses::total     47782413                       # number of demand (read+write) accesses
system.cpu.dcache.overall_accesses::.cpu.data     47807633                       # number of overall (read+write) accesses
system.cpu.dcache.overall_accesses::total     47807633                       # number of overall (read+write) accesses
system.cpu.dcache.demand_miss_rate::.cpu.data     0.006195                       # miss rate for demand accesses
system.cpu.dcache.demand_miss_rate::total     0.006195                       # miss rate for demand accesses
system.cpu.dcache.overall_miss_rate::.cpu.data     0.006197                       # miss rate for overall accesses
system.cpu.dcache.overall_miss_rate::total     0.006197                       # miss rate for overall accesses
system.cpu.dcache.demand_avg_miss_latency::.cpu.data 23373.824420                       # average overall miss latency
system.cpu.dcache.demand_avg_miss_latency::total 23373.824420                       # average overall miss latency
system.cpu.dcache.overall_avg_miss_latency::.cpu.data 23353.470680                       # average overall miss latency
system.cpu.dcache.overall_avg_miss_latency::total 23353.470680                       # average overall miss latency
system.cpu.dcache.blocked_cycles::no_mshrs           62                       # number of cycles access was blocked
system.cpu.dcache.blocked_cycles::no_targets            0                       # number of cycles access was blocked
system.cpu.dcache.blocked::no_mshrs                 1                       # number of cycles access was blocked
system.cpu.dcache.blocked::no_targets               0                       # number of cycles access was blocked
system.cpu.dcache.avg_blocked_cycles::no_mshrs           62                       # average number of cycles each access was blocked
system.cpu.dcache.avg_blocked_cycles::no_targets          nan                       # average number of cycles each access was blocked
system.cpu.dcache.writebacks::.writebacks       169473                       # number of writebacks
system.cpu.dcache.writebacks::total            169473                       # number of writebacks
system.cpu.dcache.demand_mshr_hits::.cpu.data       122037                       # number of demand (read+write) MSHR hits
system.cpu.dcache.demand_mshr_hits::total       122037                       # number of demand (read+write) MSHR hits
system.cpu.dcache.overall_mshr_hits::.cpu.data       122037                       # number of overall MSHR hits
system.cpu.dcache.overall_mshr_hits::total       122037                       # number of overall MSHR hits
system.cpu.dcache.demand_mshr_misses::.cpu.data       173987                       # number of demand (read+write) MSHR misses
system.cpu.dcache.demand_mshr_misses::total       173987                       # number of demand (read+write) MSHR misses
system.cpu.dcache.overall_mshr_misses::.cpu.data       174238                       # number of overall MSHR misses
system.cpu.dcache.overall_mshr_misses::total       174238                       # number of overall MSHR misses
system.cpu.dcache.demand_mshr_miss_latency::.cpu.data   4546133000                       # number of demand (read+write) MSHR miss cycles
system.cpu.dcache.demand_mshr_miss_latency::total   4546133000                       # number of demand (read+write) MSHR miss cycles
system.cpu.dcache.overall_mshr_miss_latency::.cpu.data   4558893000                       # number of overall MSHR miss cycles
system.cpu.dcache.overall_mshr_miss_latency::total   4558893000                       # number of overall MSHR miss cycles
system.cpu.dcache.demand_mshr_miss_rate::.cpu.data     0.003641                       # mshr miss rate for demand accesses
system.cpu.dcache.demand_mshr_miss_rate::total     0.003641                       # mshr miss rate for demand accesses
system.cpu.dcache.overall_mshr_miss_rate::.cpu.data     0.003645                       # mshr miss rate for overall accesses
system.cpu.dcache.overall_mshr_miss_rate::total     0.003645                       # mshr miss rate for overall accesses
system.cpu.dcache.demand_avg_mshr_miss_latency::.cpu.data 26129.153328                       # average overall mshr miss latency
system.cpu.dcache.demand_avg_mshr_miss_latency::total 26129.153328                       # average overall mshr miss latency
system.cpu.dcache.overall_avg_mshr_miss_latency::.cpu.data 26164.745922                       # average overall mshr miss latency
system.cpu.dcache.overall_avg_mshr_miss_latency::total 26164.745922                       # average overall mshr miss latency
system.cpu.dcache.replacements                 173214                       # number of replacements
system.cpu.dcache.ReadReq_hits::.cpu.data     30272502                       # number of ReadReq hits
system.cpu.dcache.ReadReq_hits::total        30272502                       # number of ReadReq hits
system.cpu.dcache.ReadReq_misses::.cpu.data        35668                       # number of ReadReq misses
system.cpu.dcache.ReadReq_misses::total         35668                       # number of ReadReq misses
system.cpu.dcache.ReadReq_miss_latency::.cpu.data   1028384000                       # number of ReadReq miss cycles
system.cpu.dcache.ReadReq_miss_latency::total   1028384000                       # number of ReadReq miss cycles
system.cpu.dcache.ReadReq_accesses::.cpu.data     30308170                       # number of ReadReq accesses(hits+misses)
system.cpu.dcache.ReadReq_accesses::total     30308170                       # number of ReadReq accesses(hits+misses)
system.cpu.dcache.ReadReq_miss_rate::.cpu.data     0.001177                       # miss rate for ReadReq accesses
system.cpu.dcache.ReadReq_miss_rate::total     0.001177                       # miss rate for ReadReq accesses
system.cpu.dcache.ReadReq_avg_miss_latency::.cpu.data 28832.118425                       # average ReadReq miss latency
system.cpu.dcache.ReadReq_avg_miss_latency::total 28832.118425                       # average ReadReq miss latency
system.cpu.dcache.ReadReq_mshr_hits::.cpu.data         1189                       # number of ReadReq MSHR hits
system.cpu.dcache.ReadReq_mshr_hits::total         1189                       # number of ReadReq MSHR hits
system.cpu.dcache.ReadReq_mshr_misses::.cpu.data        34479                       # number of ReadReq MSHR misses
system.cpu.dcache.ReadReq_mshr_misses::total        34479                       # number of ReadReq MSHR misses
system.cpu.dcache.ReadReq_mshr_miss_latency::.cpu.data    920142000                       # number of ReadReq MSHR miss cycles
system.cpu.dcache.ReadReq_mshr_miss_latency::total    920142000                       # number of ReadReq MSHR miss cycles
system.cpu.dcache.ReadReq_mshr_miss_rate::.cpu.data     0.001138                       # mshr miss rate for ReadReq accesses
system.cpu.dcache.ReadReq_mshr_miss_rate::total     0.001138                       # mshr miss rate for ReadReq accesses
system.cpu.dcache.ReadReq_avg_mshr_miss_latency::.cpu.data 26687.026886                       # average ReadReq mshr miss latency
system.cpu.dcache.ReadReq_avg_mshr_miss_latency::total 26687.026886                       # average ReadReq mshr miss latency
system.cpu.dcache.WriteReq_hits::.cpu.data     17213887                       # number of WriteReq hits
system.cpu.dcache.WriteReq_hits::total       17213887                       # number of WriteReq hits
system.cpu.dcache.WriteReq_misses::.cpu.data       260356                       # number of WriteReq misses
system.cpu.dcache.WriteReq_misses::total       260356                       # number of WriteReq misses
system.cpu.dcache.WriteReq_miss_latency::.cpu.data   5890829000                       # number of WriteReq miss cycles
system.cpu.dcache.WriteReq_miss_latency::total   5890829000                       # number of WriteReq miss cycles
system.cpu.dcache.WriteReq_accesses::.cpu.data     17474243                       # number of WriteReq accesses(hits+misses)
system.cpu.dcache.WriteReq_accesses::total     17474243                       # number of WriteReq accesses(hits+misses)
system.cpu.dcache.WriteReq_miss_rate::.cpu.data     0.014899                       # miss rate for WriteReq accesses
system.cpu.dcache.WriteReq_miss_rate::total     0.014899                       # miss rate for WriteReq accesses
system.cpu.dcache.WriteReq_avg_miss_latency::.cpu.data 22626.054326                       # average WriteReq miss latency
system.cpu.dcache.WriteReq_avg_miss_latency::total 22626.054326                       # average WriteReq miss latency
system.cpu.dcache.WriteReq_mshr_hits::.cpu.data       120848                       # number of WriteReq MSHR hits
system.cpu.dcache.WriteReq_mshr_hits::total       120848                       # number of WriteReq MSHR hits
system.cpu.dcache.WriteReq_mshr_misses::.cpu.data       139508                       # number of WriteReq MSHR misses
system.cpu.dcache.WriteReq_mshr_misses::total       139508                       # number of WriteReq MSHR misses
system.cpu.dcache.WriteReq_mshr_miss_latency::.cpu.data   3625991000                       # number of WriteReq MSHR miss cycles
system.cpu.dcache.WriteReq_mshr_miss_latency::total   3625991000                       # number of WriteReq MSHR miss cycles
system.cpu.dcache.WriteReq_mshr_miss_rate::.cpu.data     0.007984                       # mshr miss rate for WriteReq accesses
system.cpu.dcache.WriteReq_mshr_miss_rate::total     0.007984                       # mshr miss rate for WriteReq accesses
system.cpu.dcache.WriteReq_avg_mshr_miss_latency::.cpu.data 25991.276486                       # average WriteReq mshr miss latency
system.cpu.dcache.WriteReq_avg_mshr_miss_latency::total 25991.276486                       # average WriteReq mshr miss latency
system.cpu.dcache.SoftPFReq_hits::.cpu.data        24962                       # number of SoftPFReq hits
system.cpu.dcache.SoftPFReq_hits::total         24962                       # number of SoftPFReq hits
system.cpu.dcache.SoftPFReq_misses::.cpu.data          258                       # number of SoftPFReq misses
system.cpu.dcache.SoftPFReq_misses::total          258                       # number of SoftPFReq misses
system.cpu.dcache.SoftPFReq_accesses::.cpu.data        25220                       # number of SoftPFReq accesses(hits+misses)
system.cpu.dcache.SoftPFReq_accesses::total        25220                       # number of SoftPFReq accesses(hits+misses)
system.cpu.dcache.SoftPFReq_miss_rate::.cpu.data     0.010230                       # miss rate for SoftPFReq accesses
system.cpu.dcache.SoftPFReq_miss_rate::total     0.010230                       # miss rate for SoftPFReq accesses
system.cpu.dcache.SoftPFReq_mshr_misses::.cpu.data          251                       # number of SoftPFReq MSHR misses
system.cpu.dcache.SoftPFReq_mshr_misses::total          251                       # number of SoftPFReq MSHR misses
system.cpu.dcache.SoftPFReq_mshr_miss_latency::.cpu.data     12760000                       # number of SoftPFReq MSHR miss cycles
system.cpu.dcache.SoftPFReq_mshr_miss_latency::total     12760000                       # number of SoftPFReq MSHR miss cycles
system.cpu.dcache.SoftPFReq_mshr_miss_rate::.cpu.data     0.009952                       # mshr miss rate for SoftPFReq accesses
system.cpu.dcache.SoftPFReq_mshr_miss_rate::total     0.009952                       # mshr miss rate for SoftPFReq accesses
system.cpu.dcache.SoftPFReq_avg_mshr_miss_latency::.cpu.data 50836.653386                       # average SoftPFReq mshr miss latency
system.cpu.dcache.SoftPFReq_avg_mshr_miss_latency::total 50836.653386                       # average SoftPFReq mshr miss latency
system.cpu.dcache.LoadLockedReq_hits::.cpu.data          166                       # number of LoadLockedReq hits
system.cpu.dcache.LoadLockedReq_hits::total          166                       # number of LoadLockedReq hits
system.cpu.dcache.LoadLockedReq_accesses::.cpu.data          166                       # number of LoadLockedReq accesses(hits+misses)
system.cpu.dcache.LoadLockedReq_accesses::total          166                       # number of LoadLockedReq accesses(hits+misses)
system.cpu.dcache.StoreCondReq_hits::.cpu.data          166                       # number of StoreCondReq hits
system.cpu.dcache.StoreCondReq_hits::total          166                       # number of StoreCondReq hits
system.cpu.dcache.StoreCondReq_accesses::.cpu.data          166                       # number of StoreCondReq accesses(hits+misses)
system.cpu.dcache.StoreCondReq_accesses::total          166                       # number of StoreCondReq accesses(hits+misses)
system.cpu.dcache.power_state.pwrStateResidencyTicks::UNDEFINED 140123931000                       # Cumulative time (in ticks) in various power states
system.cpu.dcache.tags.tagsinuse          1018.951504                       # Cycle average of tags in use
system.cpu.dcache.tags.total_refs            47685921                       # Total number of references to valid blocks.
system.cpu.dcache.tags.sampled_refs            174238                       # Sample count of references to valid blocks.
system.cpu.dcache.tags.avg_refs            273.682670                       # Average number of references to valid blocks.
system.cpu.dcache.tags.warmup_cycle            223000                       # Cycle when the warmup percentage was hit.
system.cpu.dcache.tags.occ_blocks::.cpu.data  1018.951504                       # Average occupied blocks per requestor
system.cpu.dcache.tags.occ_percent::.cpu.data     0.995070                       # Average percentage of cache occupancy
system.cpu.dcache.tags.occ_percent::total     0.995070                       # Average percentage of cache occupancy
system.cpu.dcache.tags.occ_task_id_blocks::1024         1024                       # Occupied blocks per task id
system.cpu.dcache.tags.age_task_id_blocks_1024::0            8                       # Occupied blocks per task id
system.cpu.dcache.tags.age_task_id_blocks_1024::1           61                       # Occupied blocks per task id
system.cpu.dcache.tags.age_task_id_blocks_1024::2          410                       # Occupied blocks per task id
system.cpu.dcache.tags.age_task_id_blocks_1024::3          530                       # Occupied blocks per task id
system.cpu.dcache.tags.age_task_id_blocks_1024::4           15                       # Occupied blocks per task id
system.cpu.dcache.tags.occ_task_id_percent::1024            1                       # Percentage of cache occupancy per task id
system.cpu.dcache.tags.tag_accesses          95790168                       # Number of tag accesses
system.cpu.dcache.tags.data_accesses         95790168                       # Number of data accesses
system.cpu.dcache.tags.power_state.pwrStateResidencyTicks::UNDEFINED 140123931000                       # Cumulative time (in ticks) in various power states
system.cpu.dtb.instHits                             0                       # ITB inst hits
system.cpu.dtb.instMisses                           0                       # ITB inst misses
system.cpu.dtb.readHits                             0                       # DTB read hits
system.cpu.dtb.readMisses                           0                       # DTB read misses
system.cpu.dtb.writeHits                            0                       # DTB write hits
system.cpu.dtb.writeMisses                          0                       # DTB write misses
system.cpu.dtb.inserts                              0                       # Number of times an entry is inserted into the TLB
system.cpu.dtb.flushTlb                             0                       # Number of times complete TLB was flushed
system.cpu.dtb.flushTlbMva                          0                       # Number of times TLB was flushed by MVA
system.cpu.dtb.flushTlbMvaAsid                      0                       # Number of times TLB was flushed by MVA & ASID
system.cpu.dtb.flushTlbAsid                         0                       # Number of times TLB was flushed by ASID
system.cpu.dtb.flushedEntries                       0                       # Number of entries that have been flushed from TLB
system.cpu.dtb.alignFaults                          0                       # Number of TLB faults due to alignment restrictions
system.cpu.dtb.prefetchFaults                       0                       # Number of TLB faults due to prefetch
system.cpu.dtb.domainFaults                         0                       # Number of TLB faults due to domain restrictions
system.cpu.dtb.permsFaults                          0                       # Number of TLB faults due to permissions restrictions
system.cpu.dtb.readAccesses                         0                       # DTB read accesses
system.cpu.dtb.writeAccesses                        0                       # DTB write accesses
system.cpu.dtb.instAccesses                         0                       # ITB inst accesses
system.cpu.dtb.hits                                 0                       # Total TLB (inst and data) hits
system.cpu.dtb.misses                               0                       # Total TLB (inst and data) misses
system.cpu.dtb.accesses                             0                       # Total TLB (inst and data) accesses
system.cpu.dtb.stage2_mmu.stage2_tlb.instHits            0                       # ITB inst hits
system.cpu.dtb.stage2_mmu.stage2_tlb.instMisses            0                       # ITB inst misses
system.cpu.dtb.stage2_mmu.stage2_tlb.readHits            0                       # DTB read hits
system.cpu.dtb.stage2_mmu.stage2_tlb.readMisses            0                       # DTB read misses
system.cpu.dtb.stage2_mmu.stage2_tlb.writeHits            0                       # DTB write hits
system.cpu.dtb.stage2_mmu.stage2_tlb.writeMisses            0                       # DTB write misses
system.cpu.dtb.stage2_mmu.stage2_tlb.inserts            0                       # Number of times an entry is inserted into the TLB
system.cpu.dtb.stage2_mmu.stage2_tlb.flushTlb            0                       # Number of times complete TLB was flushed
system.cpu.dtb.stage2_mmu.stage2_tlb.flushTlbMva            0                       # Number of times TLB was flushed by MVA
system.cpu.dtb.stage2_mmu.stage2_tlb.flushTlbMvaAsid            0                       # Number of times TLB was flushed by MVA & ASID
system.cpu.dtb.stage2_mmu.stage2_tlb.flushTlbAsid            0                       # Number of times TLB was flushed by ASID
system.cpu.dtb.stage2_mmu.stage2_tlb.flushedEntries            0                       # Number of entries that have been flushed from TLB
system.cpu.dtb.stage2_mmu.stage2_tlb.alignFaults            0                       # Number of TLB faults due to alignment restrictions
system.cpu.dtb.stage2_mmu.stage2_tlb.prefetchFaults            0                       # Number of TLB faults due to prefetch
system.cpu.dtb.stage2_mmu.stage2_tlb.domainFaults            0                       # Number of TLB faults due to domain restrictions
system.cpu.dtb.stage2_mmu.stage2_tlb.permsFaults            0                       # Number of TLB faults due to permissions restrictions
system.cpu.dtb.stage2_mmu.stage2_tlb.readAccesses            0                       # DTB read accesses
system.cpu.dtb.stage2_mmu.stage2_tlb.writeAccesses            0                       # DTB write accesses
system.cpu.dtb.stage2_mmu.stage2_tlb.instAccesses            0                       # ITB inst accesses
system.cpu.dtb.stage2_mmu.stage2_tlb.hits            0                       # Total TLB (inst and data) hits
system.cpu.dtb.stage2_mmu.stage2_tlb.misses            0                       # Total TLB (inst and data) misses
system.cpu.dtb.stage2_mmu.stage2_tlb.accesses            0                       # Total TLB (inst and data) accesses
system.cpu.dtb.stage2_mmu.stage2_tlb.walker.walks            0                       # Table walker walks requested
system.cpu.dtb.stage2_mmu.stage2_tlb.walker.requestOrigin_Requested::Data            0                       # Table walker requests started/completed, data/inst
system.cpu.dtb.stage2_mmu.stage2_tlb.walker.requestOrigin_Requested::Inst            0                       # Table walker requests started/completed, data/inst
system.cpu.dtb.stage2_mmu.stage2_tlb.walker.requestOrigin_Requested::total            0                       # Table walker requests started/completed, data/inst
system.cpu.dtb.stage2_mmu.stage2_tlb.walker.requestOrigin_Completed::Data            0                       # Table walker requests started/completed, data/inst
system.cpu.dtb.stage2_mmu.stage2_tlb.walker.requestOrigin_Completed::Inst            0                       # Table walker requests started/completed, data/inst
system.cpu.dtb.stage2_mmu.stage2_tlb.walker.requestOrigin_Completed::total            0                       # Table walker requests started/completed, data/inst
system.cpu.dtb.stage2_mmu.stage2_tlb.walker.requestOrigin::total            0                       # Table walker requests started/completed, data/inst
system.cpu.dtb.stage2_mmu.stage2_tlb.walker.power_state.pwrStateResidencyTicks::UNDEFINED 140123931000                       # Cumulative time (in ticks) in various power states
system.cpu.dtb.walker.walks                         0                       # Table walker walks requested
system.cpu.dtb.walker.requestOrigin_Requested::Data            0                       # Table walker requests started/completed, data/inst
system.cpu.dtb.walker.requestOrigin_Requested::Inst            0                       # Table walker requests started/completed, data/inst
system.cpu.dtb.walker.requestOrigin_Requested::total            0                       # Table walker requests started/completed, data/inst
system.cpu.dtb.walker.requestOrigin_Completed::Data            0                       # Table walker requests started/completed, data/inst
system.cpu.dtb.walker.requestOrigin_Completed::Inst            0                       # Table walker requests started/completed, data/inst
system.cpu.dtb.walker.requestOrigin_Completed::total            0                       # Table walker requests started/completed, data/inst
system.cpu.dtb.walker.requestOrigin::total            0                       # Table walker requests started/completed, data/inst
system.cpu.dtb.walker.power_state.pwrStateResidencyTicks::UNDEFINED 140123931000                       # Cumulative time (in ticks) in various power states
system.cpu.fetch2.intInstructions            37763961                       # Number of integer instructions successfully decoded
system.cpu.fetch2.fpInstructions                    0                       # Number of floating point instructions successfully decoded
system.cpu.fetch2.vecInstructions                   0                       # Number of SIMD instructions successfully decoded
system.cpu.fetch2.loadInstructions           17245468                       # Number of memory load instructions successfully decoded
system.cpu.fetch2.storeInstructions          14150847                       # Number of memory store instructions successfully decoded
system.cpu.fetch2.amoInstructions                   0                       # Number of memory atomic instructions successfully decoded
system.cpu.icache.demand_hits::.cpu.inst     15473541                       # number of demand (read+write) hits
system.cpu.icache.demand_hits::total         15473541                       # number of demand (read+write) hits
system.cpu.icache.overall_hits::.cpu.inst     15473541                       # number of overall hits
system.cpu.icache.overall_hits::total        15473541                       # number of overall hits
system.cpu.icache.demand_misses::.cpu.inst         1848                       # number of demand (read+write) misses
system.cpu.icache.demand_misses::total           1848                       # number of demand (read+write) misses
system.cpu.icache.overall_misses::.cpu.inst         1848                       # number of overall misses
system.cpu.icache.overall_misses::total          1848                       # number of overall misses
system.cpu.icache.demand_miss_latency::.cpu.inst    137735000                       # number of demand (read+write) miss cycles
system.cpu.icache.demand_miss_latency::total    137735000                       # number of demand (read+write) miss cycles
system.cpu.icache.overall_miss_latency::.cpu.inst    137735000                       # number of overall miss cycles
system.cpu.icache.overall_miss_latency::total    137735000                       # number of overall miss cycles
system.cpu.icache.demand_accesses::.cpu.inst     15475389                       # number of demand (read+write) accesses
system.cpu.icache.demand_accesses::total     15475389                       # number of demand (read+write) accesses
system.cpu.icache.overall_accesses::.cpu.inst     15475389                       # number of overall (read+write) accesses
system.cpu.icache.overall_accesses::total     15475389                       # number of overall (read+write) accesses
system.cpu.icache.demand_miss_rate::.cpu.inst     0.000119                       # miss rate for demand accesses
system.cpu.icache.demand_miss_rate::total     0.000119                       # miss rate for demand accesses
system.cpu.icache.overall_miss_rate::.cpu.inst     0.000119                       # miss rate for overall accesses
system.cpu.icache.overall_miss_rate::total     0.000119                       # miss rate for overall accesses
system.cpu.icache.demand_avg_miss_latency::.cpu.inst 74531.926407                       # average overall miss latency
system.cpu.icache.demand_avg_miss_latency::total 74531.926407                       # average overall miss latency
system.cpu.icache.overall_avg_miss_latency::.cpu.inst 74531.926407                       # average overall miss latency
system.cpu.icache.overall_avg_miss_latency::total 74531.926407                       # average overall miss latency
system.cpu.icache.blocked_cycles::no_mshrs            0                       # number of cycles access was blocked
system.cpu.icache.blocked_cycles::no_targets            0                       # number of cycles access was blocked
system.cpu.icache.blocked::no_mshrs                 0                       # number of cycles access was blocked
system.cpu.icache.blocked::no_targets               0                       # number of cycles access was blocked
system.cpu.icache.avg_blocked_cycles::no_mshrs          nan                       # average number of cycles each access was blocked
system.cpu.icache.avg_blocked_cycles::no_targets          nan                       # average number of cycles each access was blocked
system.cpu.icache.writebacks::.writebacks         1026                       # number of writebacks
system.cpu.icache.writebacks::total              1026                       # number of writebacks
system.cpu.icache.demand_mshr_misses::.cpu.inst         1848                       # number of demand (read+write) MSHR misses
system.cpu.icache.demand_mshr_misses::total         1848                       # number of demand (read+write) MSHR misses
system.cpu.icache.overall_mshr_misses::.cpu.inst         1848                       # number of overall MSHR misses
system.cpu.icache.overall_mshr_misses::total         1848                       # number of overall MSHR misses
system.cpu.icache.demand_mshr_miss_latency::.cpu.inst    134039000                       # number of demand (read+write) MSHR miss cycles
system.cpu.icache.demand_mshr_miss_latency::total    134039000                       # number of demand (read+write) MSHR miss cycles
system.cpu.icache.overall_mshr_miss_latency::.cpu.inst    134039000                       # number of overall MSHR miss cycles
system.cpu.icache.overall_mshr_miss_latency::total    134039000                       # number of overall MSHR miss cycles
system.cpu.icache.demand_mshr_miss_rate::.cpu.inst     0.000119                       # mshr miss rate for demand accesses
system.cpu.icache.demand_mshr_miss_rate::total     0.000119                       # mshr miss rate for demand accesses
system.cpu.icache.overall_mshr_miss_rate::.cpu.inst     0.000119                       # mshr miss rate for overall accesses
system.cpu.icache.overall_mshr_miss_rate::total     0.000119                       # mshr miss rate for overall accesses
system.cpu.icache.demand_avg_mshr_miss_latency::.cpu.inst 72531.926407                       # average overall mshr miss latency
system.cpu.icache.demand_avg_mshr_miss_latency::total 72531.926407                       # average overall mshr miss latency
system.cpu.icache.overall_avg_mshr_miss_latency::.cpu.inst 72531.926407                       # average overall mshr miss latency
system.cpu.icache.overall_avg_mshr_miss_latency::total 72531.926407                       # average overall mshr miss latency
system.cpu.icache.replacements                   1026                       # number of replacements
system.cpu.icache.ReadReq_hits::.cpu.inst     15473541                       # number of ReadReq hits
system.cpu.icache.ReadReq_hits::total        15473541                       # number of ReadReq hits
system.cpu.icache.ReadReq_misses::.cpu.inst         1848                       # number of ReadReq misses
system.cpu.icache.ReadReq_misses::total          1848                       # number of ReadReq misses
system.cpu.icache.ReadReq_miss_latency::.cpu.inst    137735000                       # number of ReadReq miss cycles
system.cpu.icache.ReadReq_miss_latency::total    137735000                       # number of ReadReq miss cycles
system.cpu.icache.ReadReq_accesses::.cpu.inst     15475389                       # number of ReadReq accesses(hits+misses)
system.cpu.icache.ReadReq_accesses::total     15475389                       # number of ReadReq accesses(hits+misses)
system.cpu.icache.ReadReq_miss_rate::.cpu.inst     0.000119                       # miss rate for ReadReq accesses
system.cpu.icache.ReadReq_miss_rate::total     0.000119                       # miss rate for ReadReq accesses
system.cpu.icache.ReadReq_avg_miss_latency::.cpu.inst 74531.926407                       # average ReadReq miss latency
system.cpu.icache.ReadReq_avg_miss_latency::total 74531.926407                       # average ReadReq miss latency
system.cpu.icache.ReadReq_mshr_misses::.cpu.inst         1848                       # number of ReadReq MSHR misses
system.cpu.icache.ReadReq_mshr_misses::total         1848                       # number of ReadReq MSHR misses
system.cpu.icache.ReadReq_mshr_miss_latency::.cpu.inst    134039000                       # number of ReadReq MSHR miss cycles
system.cpu.icache.ReadReq_mshr_miss_latency::total    134039000                       # number of ReadReq MSHR miss cycles
system.cpu.icache.ReadReq_mshr_miss_rate::.cpu.inst     0.000119                       # mshr miss rate for ReadReq accesses
system.cpu.icache.ReadReq_mshr_miss_rate::total     0.000119                       # mshr miss rate for ReadReq accesses
system.cpu.icache.ReadReq_avg_mshr_miss_latency::.cpu.inst 72531.926407                       # average ReadReq mshr miss latency
system.cpu.icache.ReadReq_avg_mshr_miss_latency::total 72531.926407                       # average ReadReq mshr miss latency
system.cpu.icache.power_state.pwrStateResidencyTicks::UNDEFINED 140123931000                       # Cumulative time (in ticks) in various power states
system.cpu.icache.tags.tagsinuse           821.054444                       # Cycle average of tags in use
system.cpu.icache.tags.total_refs            15475389                       # Total number of references to valid blocks.
system.cpu.icache.tags.sampled_refs              1848                       # Sample count of references to valid blocks.
system.cpu.icache.tags.avg_refs           8374.128247                       # Average number of references to valid blocks.
system.cpu.icache.tags.warmup_cycle            108000                       # Cycle when the warmup percentage was hit.
system.cpu.icache.tags.occ_blocks::.cpu.inst   821.054444                       # Average occupied blocks per requestor
system.cpu.icache.tags.occ_percent::.cpu.inst     0.801811                       # Average percentage of cache occupancy
system.cpu.icache.tags.occ_percent::total     0.801811                       # Average percentage of cache occupancy
system.cpu.icache.tags.occ_task_id_blocks::1024          822                       # Occupied blocks per task id
system.cpu.icache.tags.age_task_id_blocks_1024::3            8                       # Occupied blocks per task id
system.cpu.icache.tags.age_task_id_blocks_1024::4          814                       # Occupied blocks per task id
system.cpu.icache.tags.occ_task_id_percent::1024     0.802734                       # Percentage of cache occupancy per task id
system.cpu.icache.tags.tag_accesses          30952626                       # Number of tag accesses
system.cpu.icache.tags.data_accesses         30952626                       # Number of data accesses
system.cpu.icache.tags.power_state.pwrStateResidencyTicks::UNDEFINED 140123931000                       # Cumulative time (in ticks) in various power states
system.cpu.itb.instHits                             0                       # ITB inst hits
system.cpu.itb.instMisses                           0                       # ITB inst misses
system.cpu.itb.readHits                             0                       # DTB read hits
system.cpu.itb.readMisses                           0                       # DTB read misses
system.cpu.itb.writeHits                            0                       # DTB write hits
system.cpu.itb.writeMisses                          0                       # DTB write misses
system.cpu.itb.inserts                              0                       # Number of times an entry is inserted into the TLB
system.cpu.itb.flushTlb                             0                       # Number of times complete TLB was flushed
system.cpu.itb.flushTlbMva                          0                       # Number of times TLB was flushed by MVA
system.cpu.itb.flushTlbMvaAsid                      0                       # Number of times TLB was flushed by MVA & ASID
system.cpu.itb.flushTlbAsid                         0                       # Number of times TLB was flushed by ASID
system.cpu.itb.flushedEntries                       0                       # Number of entries that have been flushed from TLB
system.cpu.itb.alignFaults                          0                       # Number of TLB faults due to alignment restrictions
system.cpu.itb.prefetchFaults                       0                       # Number of TLB faults due to prefetch
system.cpu.itb.domainFaults                         0                       # Number of TLB faults due to domain restrictions
system.cpu.itb.permsFaults                          0                       # Number of TLB faults due to permissions restrictions
system.cpu.itb.readAccesses                         0                       # DTB read accesses
system.cpu.itb.writeAccesses                        0                       # DTB write accesses
system.cpu.itb.instAccesses                         0                       # ITB inst accesses
system.cpu.itb.hits                                 0                       # Total TLB (inst and data) hits
system.cpu.itb.misses                               0                       # Total TLB (inst and data) misses
system.cpu.itb.accesses                             0                       # Total TLB (inst and data) accesses
system.cpu.itb.stage2_mmu.stage2_tlb.instHits            0                       # ITB inst hits
system.cpu.itb.stage2_mmu.stage2_tlb.instMisses            0                       # ITB inst misses
system.cpu.itb.stage2_mmu.stage2_tlb.readHits            0                       # DTB read hits
system.cpu.itb.stage2_mmu.stage2_tlb.readMisses            0                       # DTB read misses
system.cpu.itb.stage2_mmu.stage2_tlb.writeHits            0                       # DTB write hits
system.cpu.itb.stage2_mmu.stage2_tlb.writeMisses            0                       # DTB write misses
system.cpu.itb.stage2_mmu.stage2_tlb.inserts            0                       # Number of times an entry is inserted into the TLB
system.cpu.itb.stage2_mmu.stage2_tlb.flushTlb            0                       # Number of times complete TLB was flushed
system.cpu.itb.stage2_mmu.stage2_tlb.flushTlbMva            0                       # Number of times TLB was flushed by MVA
system.cpu.itb.stage2_mmu.stage2_tlb.flushTlbMvaAsid            0                       # Number of times TLB was flushed by MVA & ASID
system.cpu.itb.stage2_mmu.stage2_tlb.flushTlbAsid            0                       # Number of times TLB was flushed by ASID
system.cpu.itb.stage2_mmu.stage2_tlb.flushedEntries            0                       # Number of entries that have been flushed from TLB
system.cpu.itb.stage2_mmu.stage2_tlb.alignFaults            0                       # Number of TLB faults due to alignment restrictions
system.cpu.itb.stage2_mmu.stage2_tlb.prefetchFaults            0                       # Number of TLB faults due to prefetch
system.cpu.itb.stage2_mmu.stage2_tlb.domainFaults            0                       # Number of TLB faults due to domain restrictions
system.cpu.itb.stage2_mmu.stage2_tlb.permsFaults            0                       # Number of TLB faults due to permissions restrictions
system.cpu.itb.stage2_mmu.stage2_tlb.readAccesses            0                       # DTB read accesses
system.cpu.itb.stage2_mmu.stage2_tlb.writeAccesses            0                       # DTB write accesses
system.cpu.itb.stage2_mmu.stage2_tlb.instAccesses            0                       # ITB inst accesses
system.cpu.itb.stage2_mmu.stage2_tlb.hits            0                       # Total TLB (inst and data) hits
system.cpu.itb.stage2_mmu.stage2_tlb.misses            0                       # Total TLB (inst and data) misses
system.cpu.itb.stage2_mmu.stage2_tlb.accesses            0                       # Total TLB (inst and data) accesses
system.cpu.itb.stage2_mmu.stage2_tlb.walker.walks            0                       # Table walker walks requested
system.cpu.itb.stage2_mmu.stage2_tlb.walker.requestOrigin_Requested::Data            0                       # Table walker requests started/completed, data/inst
system.cpu.itb.stage2_mmu.stage2_tlb.walker.requestOrigin_Requested::Inst            0                       # Table walker requests started/completed, data/inst
system.cpu.itb.stage2_mmu.stage2_tlb.walker.requestOrigin_Requested::total            0                       # Table walker requests started/completed, data/inst
system.cpu.itb.stage2_mmu.stage2_tlb.walker.requestOrigin_Completed::Data            0                       # Table walker requests started/completed, data/inst
system.cpu.itb.stage2_mmu.stage2_tlb.walker.requestOrigin_Completed::Inst            0                       # Table walker requests started/completed, data/inst
system.cpu.itb.stage2_mmu.stage2_tlb.walker.requestOrigin_Completed::total            0                       # Table walker requests started/completed, data/inst
system.cpu.itb.stage2_mmu.stage2_tlb.walker.requestOrigin::total            0                       # Table walker requests started/completed, data/inst
system.cpu.itb.stage2_mmu.stage2_tlb.walker.power_state.pwrStateResidencyTicks::UNDEFINED 140123931000                       # Cumulative time (in ticks) in various power states
system.cpu.itb.walker.walks                         0                       # Table walker walks requested
system.cpu.itb.walker.requestOrigin_Requested::Data            0                       # Table walker requests started/completed, data/inst
system.cpu.itb.walker.requestOrigin_Requested::Inst            0                       # Table walker requests started/completed, data/inst
system.cpu.itb.walker.requestOrigin_Requested::total            0                       # Table walker requests started/completed, data/inst
system.cpu.itb.walker.requestOrigin_Completed::Data            0                       # Table walker requests started/completed, data/inst
system.cpu.itb.walker.requestOrigin_Completed::Inst            0                       # Table walker requests started/completed, data/inst
system.cpu.itb.walker.requestOrigin_Completed::total            0                       # Table walker requests started/completed, data/inst
system.cpu.itb.walker.requestOrigin::total            0                       # Table walker requests started/completed, data/inst
system.cpu.itb.walker.power_state.pwrStateResidencyTicks::UNDEFINED 140123931000                       # Cumulative time (in ticks) in various power states
system.cpu.power_state.pwrStateResidencyTicks::ON 140123931000                       # Cumulative time (in ticks) in various power states
system.cpu.thread_0.numInsts                100000000                       # Number of Instructions committed
system.cpu.thread_0.numOps                  116826593                       # Number of Ops committed
system.cpu.thread_0.numMemRefs                      0                       # Number of Memory References
system.cpu_clk_domain.clock                      1000                       # Clock period in ticks
system.cpu_voltage_domain.voltage                   1                       # Voltage in Volts
system.l2.demand_hits::.cpu.inst                  670                       # number of demand (read+write) hits
system.l2.demand_hits::.cpu.data               169760                       # number of demand (read+write) hits
system.l2.demand_hits::total                   170430                       # number of demand (read+write) hits
system.l2.overall_hits::.cpu.inst                 670                       # number of overall hits
system.l2.overall_hits::.cpu.data              169760                       # number of overall hits
system.l2.overall_hits::total                  170430                       # number of overall hits
system.l2.demand_misses::.cpu.inst               1178                       # number of demand (read+write) misses
system.l2.demand_misses::.cpu.data               4478                       # number of demand (read+write) misses
system.l2.demand_misses::total                   5656                       # number of demand (read+write) misses
system.l2.overall_misses::.cpu.inst              1178                       # number of overall misses
system.l2.overall_misses::.cpu.data              4478                       # number of overall misses
system.l2.overall_misses::total                  5656                       # number of overall misses
system.l2.demand_miss_latency::.cpu.inst    114175000                       # number of demand (read+write) miss cycles
system.l2.demand_miss_latency::.cpu.data    435867000                       # number of demand (read+write) miss cycles
system.l2.demand_miss_latency::total        550042000                       # number of demand (read+write) miss cycles
system.l2.overall_miss_latency::.cpu.inst    114175000                       # number of overall miss cycles
system.l2.overall_miss_latency::.cpu.data    435867000                       # number of overall miss cycles
system.l2.overall_miss_latency::total       550042000                       # number of overall miss cycles
system.l2.demand_accesses::.cpu.inst             1848                       # number of demand (read+write) accesses
system.l2.demand_accesses::.cpu.data           174238                       # number of demand (read+write) accesses
system.l2.demand_accesses::total               176086                       # number of demand (read+write) accesses
system.l2.overall_accesses::.cpu.inst            1848                       # number of overall (read+write) accesses
system.l2.overall_accesses::.cpu.data          174238                       # number of overall (read+write) accesses
system.l2.overall_accesses::total              176086                       # number of overall (read+write) accesses
system.l2.demand_miss_rate::.cpu.inst        0.637446                       # miss rate for demand accesses
system.l2.demand_miss_rate::.cpu.data        0.025700                       # miss rate for demand accesses
system.l2.demand_miss_rate::total            0.032121                       # miss rate for demand accesses
system.l2.overall_miss_rate::.cpu.inst       0.637446                       # miss rate for overall accesses
system.l2.overall_miss_rate::.cpu.data       0.025700                       # miss rate for overall accesses
system.l2.overall_miss_rate::total           0.032121                       # miss rate for overall accesses
system.l2.demand_avg_miss_latency::.cpu.inst 96922.750424                       # average overall miss latency
system.l2.demand_avg_miss_latency::.cpu.data 97335.194283                       # average overall miss latency
system.l2.demand_avg_miss_latency::total 97249.292786                       # average overall miss latency
system.l2.overall_avg_miss_latency::.cpu.inst 96922.750424                       # average overall miss latency
system.l2.overall_avg_miss_latency::.cpu.data 97335.194283                       # average overall miss latency
system.l2.overall_avg_miss_latency::total 97249.292786                       # average overall miss latency
system.l2.blocked_cycles::no_mshrs                  0                       # number of cycles access was blocked
system.l2.blocked_cycles::no_targets                0                       # number of cycles access was blocked
system.l2.blocked::no_mshrs                         0                       # number of cycles access was blocked
system.l2.blocked::no_targets                       0                       # number of cycles access was blocked
system.l2.avg_blocked_cycles::no_mshrs            nan                       # average number of cycles each access was blocked
system.l2.avg_blocked_cycles::no_targets          nan                       # average number of cycles each access was blocked
system.l2.demand_mshr_hits::.cpu.inst               2                       # number of demand (read+write) MSHR hits
system.l2.demand_mshr_hits::.cpu.data               5                       # number of demand (read+write) MSHR hits
system.l2.demand_mshr_hits::total                   7                       # number of demand (read+write) MSHR hits
system.l2.overall_mshr_hits::.cpu.inst              2                       # number of overall MSHR hits
system.l2.overall_mshr_hits::.cpu.data              5                       # number of overall MSHR hits
system.l2.overall_mshr_hits::total                  7                       # number of overall MSHR hits
system.l2.demand_mshr_misses::.cpu.inst          1176                       # number of demand (read+write) MSHR misses
system.l2.demand_mshr_misses::.cpu.data          4473                       # number of demand (read+write) MSHR misses
system.l2.demand_mshr_misses::total              5649                       # number of demand (read+write) MSHR misses
system.l2.overall_mshr_misses::.cpu.inst         1176                       # number of overall MSHR misses
system.l2.overall_mshr_misses::.cpu.data         4473                       # number of overall MSHR misses
system.l2.overall_mshr_misses::total             5649                       # number of overall MSHR misses
system.l2.demand_mshr_miss_latency::.cpu.inst     90554000                       # number of demand (read+write) MSHR miss cycles
system.l2.demand_mshr_miss_latency::.cpu.data    345988000                       # number of demand (read+write) MSHR miss cycles
system.l2.demand_mshr_miss_latency::total    436542000                       # number of demand (read+write) MSHR miss cycles
system.l2.overall_mshr_miss_latency::.cpu.inst     90554000                       # number of overall MSHR miss cycles
system.l2.overall_mshr_miss_latency::.cpu.data    345988000                       # number of overall MSHR miss cycles
system.l2.overall_mshr_miss_latency::total    436542000                       # number of overall MSHR miss cycles
system.l2.demand_mshr_miss_rate::.cpu.inst     0.636364                       # mshr miss rate for demand accesses
system.l2.demand_mshr_miss_rate::.cpu.data     0.025672                       # mshr miss rate for demand accesses
system.l2.demand_mshr_miss_rate::total       0.032081                       # mshr miss rate for demand accesses
system.l2.overall_mshr_miss_rate::.cpu.inst     0.636364                       # mshr miss rate for overall accesses
system.l2.overall_mshr_miss_rate::.cpu.data     0.025672                       # mshr miss rate for overall accesses
system.l2.overall_mshr_miss_rate::total      0.032081                       # mshr miss rate for overall accesses
system.l2.demand_avg_mshr_miss_latency::.cpu.inst 77001.700680                       # average overall mshr miss latency
system.l2.demand_avg_mshr_miss_latency::.cpu.data 77350.324167                       # average overall mshr miss latency
system.l2.demand_avg_mshr_miss_latency::total 77277.748274                       # average overall mshr miss latency
system.l2.overall_avg_mshr_miss_latency::.cpu.inst 77001.700680                       # average overall mshr miss latency
system.l2.overall_avg_mshr_miss_latency::.cpu.data 77350.324167                       # average overall mshr miss latency
system.l2.overall_avg_mshr_miss_latency::total 77277.748274                       # average overall mshr miss latency
system.l2.replacements                              0                       # number of replacements
system.l2.WritebackDirty_hits::.writebacks       169473                       # number of WritebackDirty hits
system.l2.WritebackDirty_hits::total           169473                       # number of WritebackDirty hits
system.l2.WritebackDirty_accesses::.writebacks       169473                       # number of WritebackDirty accesses(hits+misses)
system.l2.WritebackDirty_accesses::total       169473                       # number of WritebackDirty accesses(hits+misses)
system.l2.WritebackClean_hits::.writebacks          998                       # number of WritebackClean hits
system.l2.WritebackClean_hits::total              998                       # number of WritebackClean hits
system.l2.WritebackClean_accesses::.writebacks          998                       # number of WritebackClean accesses(hits+misses)
system.l2.WritebackClean_accesses::total          998                       # number of WritebackClean accesses(hits+misses)
system.l2.ReadExReq_hits::.cpu.data            135962                       # number of ReadExReq hits
system.l2.ReadExReq_hits::total                135962                       # number of ReadExReq hits
system.l2.ReadExReq_misses::.cpu.data            3681                       # number of ReadExReq misses
system.l2.ReadExReq_misses::total                3681                       # number of ReadExReq misses
system.l2.ReadExReq_miss_latency::.cpu.data    354607000                       # number of ReadExReq miss cycles
system.l2.ReadExReq_miss_latency::total     354607000                       # number of ReadExReq miss cycles
system.l2.ReadExReq_accesses::.cpu.data        139643                       # number of ReadExReq accesses(hits+misses)
system.l2.ReadExReq_accesses::total            139643                       # number of ReadExReq accesses(hits+misses)
system.l2.ReadExReq_miss_rate::.cpu.data     0.026360                       # miss rate for ReadExReq accesses
system.l2.ReadExReq_miss_rate::total         0.026360                       # miss rate for ReadExReq accesses
system.l2.ReadExReq_avg_miss_latency::.cpu.data 96334.419995                       # average ReadExReq miss latency
system.l2.ReadExReq_avg_miss_latency::total 96334.419995                       # average ReadExReq miss latency
system.l2.ReadExReq_mshr_misses::.cpu.data         3681                       # number of ReadExReq MSHR misses
system.l2.ReadExReq_mshr_misses::total           3681                       # number of ReadExReq MSHR misses
system.l2.ReadExReq_mshr_miss_latency::.cpu.data    280987000                       # number of ReadExReq MSHR miss cycles
system.l2.ReadExReq_mshr_miss_latency::total    280987000                       # number of ReadExReq MSHR miss cycles
system.l2.ReadExReq_mshr_miss_rate::.cpu.data     0.026360                       # mshr miss rate for ReadExReq accesses
system.l2.ReadExReq_mshr_miss_rate::total     0.026360                       # mshr miss rate for ReadExReq accesses
system.l2.ReadExReq_avg_mshr_miss_latency::.cpu.data 76334.419995                       # average ReadExReq mshr miss latency
system.l2.ReadExReq_avg_mshr_miss_latency::total 76334.419995                       # average ReadExReq mshr miss latency
system.l2.ReadCleanReq_hits::.cpu.inst            670                       # number of ReadCleanReq hits
system.l2.ReadCleanReq_hits::total                670                       # number of ReadCleanReq hits
system.l2.ReadCleanReq_misses::.cpu.inst         1178                       # number of ReadCleanReq misses
system.l2.ReadCleanReq_misses::total             1178                       # number of ReadCleanReq misses
system.l2.ReadCleanReq_miss_latency::.cpu.inst    114175000                       # number of ReadCleanReq miss cycles
system.l2.ReadCleanReq_miss_latency::total    114175000                       # number of ReadCleanReq miss cycles
system.l2.ReadCleanReq_accesses::.cpu.inst         1848                       # number of ReadCleanReq accesses(hits+misses)
system.l2.ReadCleanReq_accesses::total           1848                       # number of ReadCleanReq accesses(hits+misses)
system.l2.ReadCleanReq_miss_rate::.cpu.inst     0.637446                       # miss rate for ReadCleanReq accesses
system.l2.ReadCleanReq_miss_rate::total      0.637446                       # miss rate for ReadCleanReq accesses
system.l2.ReadCleanReq_avg_miss_latency::.cpu.inst 96922.750424                       # average ReadCleanReq miss latency
system.l2.ReadCleanReq_avg_miss_latency::total 96922.750424                       # average ReadCleanReq miss latency
system.l2.ReadCleanReq_mshr_hits::.cpu.inst            2                       # number of ReadCleanReq MSHR hits
system.l2.ReadCleanReq_mshr_hits::total             2                       # number of ReadCleanReq MSHR hits
system.l2.ReadCleanReq_mshr_misses::.cpu.inst         1176                       # number of ReadCleanReq MSHR misses
system.l2.ReadCleanReq_mshr_misses::total         1176                       # number of ReadCleanReq MSHR misses
system.l2.ReadCleanReq_mshr_miss_latency::.cpu.inst     90554000                       # number of ReadCleanReq MSHR miss cycles
system.l2.ReadCleanReq_mshr_miss_latency::total     90554000                       # number of ReadCleanReq MSHR miss cycles
system.l2.ReadCleanReq_mshr_miss_rate::.cpu.inst     0.636364                       # mshr miss rate for ReadCleanReq accesses
system.l2.ReadCleanReq_mshr_miss_rate::total     0.636364                       # mshr miss rate for ReadCleanReq accesses
system.l2.ReadCleanReq_avg_mshr_miss_latency::.cpu.inst 77001.700680                       # average ReadCleanReq mshr miss latency
system.l2.ReadCleanReq_avg_mshr_miss_latency::total 77001.700680                       # average ReadCleanReq mshr miss latency
system.l2.ReadSharedReq_hits::.cpu.data         33798                       # number of ReadSharedReq hits
system.l2.ReadSharedReq_hits::total             33798                       # number of ReadSharedReq hits
system.l2.ReadSharedReq_misses::.cpu.data          797                       # number of ReadSharedReq misses
system.l2.ReadSharedReq_misses::total             797                       # number of ReadSharedReq misses
system.l2.ReadSharedReq_miss_latency::.cpu.data     81260000                       # number of ReadSharedReq miss cycles
system.l2.ReadSharedReq_miss_latency::total     81260000                       # number of ReadSharedReq miss cycles
system.l2.ReadSharedReq_accesses::.cpu.data        34595                       # number of ReadSharedReq accesses(hits+misses)
system.l2.ReadSharedReq_accesses::total         34595                       # number of ReadSharedReq accesses(hits+misses)
system.l2.ReadSharedReq_miss_rate::.cpu.data     0.023038                       # miss rate for ReadSharedReq accesses
system.l2.ReadSharedReq_miss_rate::total     0.023038                       # miss rate for ReadSharedReq accesses
system.l2.ReadSharedReq_avg_miss_latency::.cpu.data 101957.340025                       # average ReadSharedReq miss latency
system.l2.ReadSharedReq_avg_miss_latency::total 101957.340025                       # average ReadSharedReq miss latency
system.l2.ReadSharedReq_mshr_hits::.cpu.data            5                       # number of ReadSharedReq MSHR hits
system.l2.ReadSharedReq_mshr_hits::total            5                       # number of ReadSharedReq MSHR hits
system.l2.ReadSharedReq_mshr_misses::.cpu.data          792                       # number of ReadSharedReq MSHR misses
system.l2.ReadSharedReq_mshr_misses::total          792                       # number of ReadSharedReq MSHR misses
system.l2.ReadSharedReq_mshr_miss_latency::.cpu.data     65001000                       # number of ReadSharedReq MSHR miss cycles
system.l2.ReadSharedReq_mshr_miss_latency::total     65001000                       # number of ReadSharedReq MSHR miss cycles
system.l2.ReadSharedReq_mshr_miss_rate::.cpu.data     0.022893                       # mshr miss rate for ReadSharedReq accesses
system.l2.ReadSharedReq_mshr_miss_rate::total     0.022893                       # mshr miss rate for ReadSharedReq accesses
system.l2.ReadSharedReq_avg_mshr_miss_latency::.cpu.data 82071.969697                       # average ReadSharedReq mshr miss latency
system.l2.ReadSharedReq_avg_mshr_miss_latency::total 82071.969697                       # average ReadSharedReq mshr miss latency
system.l2.power_state.pwrStateResidencyTicks::UNDEFINED 140123931000                       # Cumulative time (in ticks) in various power states
system.l2.tags.tagsinuse                  5552.980245                       # Cycle average of tags in use
system.l2.tags.total_refs                      348415                       # Total number of references to valid blocks.
system.l2.tags.sampled_refs                      5649                       # Sample count of references to valid blocks.
system.l2.tags.avg_refs                     61.677288                       # Average number of references to valid blocks.
system.l2.tags.warmup_cycle                     87000                       # Cycle when the warmup percentage was hit.
system.l2.tags.occ_blocks::.cpu.inst      1172.987191                       # Average occupied blocks per requestor
system.l2.tags.occ_blocks::.cpu.data      4379.993055                       # Average occupied blocks per requestor
system.l2.tags.occ_percent::.cpu.inst        0.071593                       # Average percentage of cache occupancy
system.l2.tags.occ_percent::.cpu.data        0.267334                       # Average percentage of cache occupancy
system.l2.tags.occ_percent::total            0.338927                       # Average percentage of cache occupancy
system.l2.tags.occ_task_id_blocks::1024          5649                       # Occupied blocks per task id
system.l2.tags.age_task_id_blocks_1024::4         5649                       # Occupied blocks per task id
system.l2.tags.occ_task_id_percent::1024     0.344788                       # Percentage of cache occupancy per task id
system.l2.tags.tag_accesses                   2793025                       # Number of tag accesses
system.l2.tags.data_accesses                  2793025                       # Number of data accesses
system.l2.tags.power_state.pwrStateResidencyTicks::UNDEFINED 140123931000                       # Cumulative time (in ticks) in various power states
system.mem_ctrls.avgPriority_.cpu.inst::samples      1176.00                       # Average QoS priority value for accepted requests
system.mem_ctrls.avgPriority_.cpu.data::samples      4473.00                       # Average QoS priority value for accepted requests
system.mem_ctrls.priorityMinLatency      0.000000018750                       # per QoS priority minimum request to response latency (s)
system.mem_ctrls.priorityMaxLatency      0.000000575000                       # per QoS priority maximum request to response latency (s)
system.mem_ctrls.numReadWriteTurnArounds            0                       # Number of turnarounds from READ to WRITE
system.mem_ctrls.numWriteReadTurnArounds            0                       # Number of turnarounds from WRITE to READ
system.mem_ctrls.numStayReadState               47282                       # Number of times bus staying in READ state
system.mem_ctrls.numStayWriteState                  0                       # Number of times bus staying in WRITE state
system.mem_ctrls.readReqs                        5649                       # Number of read requests accepted
system.mem_ctrls.writeReqs                          0                       # Number of write requests accepted
system.mem_ctrls.readBursts                      5649                       # Number of controller read bursts, including those serviced by the write queue
system.mem_ctrls.writeBursts                        0                       # Number of controller write bursts, including those merged in the write queue
system.mem_ctrls.servicedByWrQ                      0                       # Number of controller read bursts serviced by the write queue
system.mem_ctrls.mergedWrBursts                     0                       # Number of controller write bursts merged with an existing one
system.mem_ctrls.neitherReadNorWriteReqs            0                       # Number of requests that are neither read nor write
system.mem_ctrls.avgRdQLen                       1.00                       # Average read queue length when enqueuing
system.mem_ctrls.avgWrQLen                       0.00                       # Average write queue length when enqueuing
system.mem_ctrls.numRdRetry                         0                       # Number of times read queue was full causing retry
system.mem_ctrls.numWrRetry                         0                       # Number of times write queue was full causing retry
system.mem_ctrls.readPktSize::0                     0                       # Read request sizes (log2)
system.mem_ctrls.readPktSize::1                     0                       # Read request sizes (log2)
system.mem_ctrls.readPktSize::2                     0                       # Read request sizes (log2)
system.mem_ctrls.readPktSize::3                     0                       # Read request sizes (log2)
system.mem_ctrls.readPktSize::4                     0                       # Read request sizes (log2)
system.mem_ctrls.readPktSize::5                     0                       # Read request sizes (log2)
system.mem_ctrls.readPktSize::6                  5649                       # Read request sizes (log2)
system.mem_ctrls.writePktSize::0                    0                       # Write request sizes (log2)
system.mem_ctrls.writePktSize::1                    0                       # Write request sizes (log2)
system.mem_ctrls.writePktSize::2                    0                       # Write request sizes (log2)
system.mem_ctrls.writePktSize::3                    0                       # Write request sizes (log2)
system.mem_ctrls.writePktSize::4                    0                       # Write request sizes (log2)
system.mem_ctrls.writePktSize::5                    0                       # Write request sizes (log2)
system.mem_ctrls.writePktSize::6                    0                       # Write request sizes (log2)
system.mem_ctrls.rdQLenPdf::0                    5236                       # What read queue length does an incoming req see
system.mem_ctrls.rdQLenPdf::1                     393                       # What read queue length does an incoming req see
system.mem_ctrls.rdQLenPdf::2                      20                       # What read queue length does an incoming req see
system.mem_ctrls.rdQLenPdf::3                       0                       # What read queue length does an incoming req see
system.mem_ctrls.rdQLenPdf::4                       0                       # What read queue length does an incoming req see
system.mem_ctrls.rdQLenPdf::5                       0                       # What read queue length does an incoming req see
system.mem_ctrls.rdQLenPdf::6                       0                       # What read queue length does an incoming req see
system.mem_ctrls.rdQLenPdf::7                       0                       # What read queue length does an incoming req see
system.mem_ctrls.rdQLenPdf::8                       0                       # What read queue length does an incoming req see
system.mem_ctrls.rdQLenPdf::9                       0                       # What read queue length does an incoming req see
system.mem_ctrls.rdQLenPdf::10                      0                       # What read queue length does an incoming req see
system.mem_ctrls.rdQLenPdf::11                      0                       # What read queue length does an incoming req see
system.mem_ctrls.rdQLenPdf::12                      0                       # What read queue length does an incoming req see
system.mem_ctrls.rdQLenPdf::13                      0                       # What read queue length does an incoming req see
system.mem_ctrls.rdQLenPdf::14                      0                       # What read queue length does an incoming req see
[...]
system.mem_ctrls.dram.bw_read::.cpu.data      2042992                       # Total read bandwidth from this memory (bytes/s)
system.mem_ctrls.dram.bw_read::total          2580116                       # Total read bandwidth from this memory (bytes/s)
system.mem_ctrls.dram.bw_inst_read::.cpu.inst       537125                       # Instruction read bandwidth from this memory (bytes/s)
system.mem_ctrls.dram.bw_inst_read::total       537125                       # Instruction read bandwidth from this memory (bytes/s)
system.mem_ctrls.dram.bw_total::.cpu.inst       537125                       # Total bandwidth to/from this memory (bytes/s)
system.mem_ctrls.dram.bw_total::.cpu.data      2042992                       # Total bandwidth to/from this memory (bytes/s)
system.mem_ctrls.dram.bw_total::total         2580116                       # Total bandwidth to/from this memory (bytes/s)
system.mem_ctrls.dram.readBursts                 5649                       # Number of DRAM read bursts
system.mem_ctrls.dram.writeBursts                   0                       # Number of DRAM write bursts
system.mem_ctrls.dram.perBankRdBursts::0          420                       # Per bank write bursts
system.mem_ctrls.dram.perBankRdBursts::1          398                       # Per bank write bursts
system.mem_ctrls.dram.perBankRdBursts::2          364                       # Per bank write bursts
system.mem_ctrls.dram.perBankRdBursts::3          335                       # Per bank write bursts
system.mem_ctrls.dram.perBankRdBursts::4          352                       # Per bank write bursts
system.mem_ctrls.dram.perBankRdBursts::5          301                       # Per bank write bursts
system.mem_ctrls.dram.perBankRdBursts::6          376                       # Per bank write bursts
system.mem_ctrls.dram.perBankRdBursts::7          370                       # Per bank write bursts
system.mem_ctrls.dram.perBankRdBursts::8          225                       # Per bank write bursts
system.mem_ctrls.dram.perBankRdBursts::9          330                       # Per bank write bursts
system.mem_ctrls.dram.perBankRdBursts::10          294                       # Per bank write bursts
system.mem_ctrls.dram.perBankRdBursts::11          347                       # Per bank write bursts
system.mem_ctrls.dram.perBankRdBursts::12          372                       # Per bank write bursts
system.mem_ctrls.dram.perBankRdBursts::13          409                       # Per bank write bursts
system.mem_ctrls.dram.perBankRdBursts::14          422                       # Per bank write bursts
system.mem_ctrls.dram.perBankRdBursts::15          334                       # Per bank write bursts
system.mem_ctrls.dram.perBankWrBursts::0            0                       # Per bank write bursts
system.mem_ctrls.dram.perBankWrBursts::1            0                       # Per bank write bursts
system.mem_ctrls.dram.perBankWrBursts::2            0                       # Per bank write bursts
system.mem_ctrls.dram.perBankWrBursts::3            0                       # Per bank write bursts
system.mem_ctrls.dram.perBankWrBursts::4            0                       # Per bank write bursts
system.mem_ctrls.dram.perBankWrBursts::5            0                       # Per bank write bursts
system.mem_ctrls.dram.perBankWrBursts::6            0                       # Per bank write bursts
system.mem_ctrls.dram.perBankWrBursts::7            0                       # Per bank write bursts
system.mem_ctrls.dram.perBankWrBursts::8            0                       # Per bank write bursts
system.mem_ctrls.dram.perBankWrBursts::9            0                       # Per bank write bursts
system.mem_ctrls.dram.perBankWrBursts::10            0                       # Per bank write bursts
system.mem_ctrls.dram.perBankWrBursts::11            0                       # Per bank write bursts
system.mem_ctrls.dram.perBankWrBursts::12            0                       # Per bank write bursts
system.mem_ctrls.dram.perBankWrBursts::13            0                       # Per bank write bursts
system.mem_ctrls.dram.perBankWrBursts::14            0                       # Per bank write bursts
system.mem_ctrls.dram.perBankWrBursts::15            0                       # Per bank write bursts
system.mem_ctrls.dram.totQLat                40790750                       # Total ticks spent queuing
system.mem_ctrls.dram.totBusLat              28245000                       # Total ticks spent in databus transfers
system.mem_ctrls.dram.totMemAccLat          146709500                       # Total ticks spent from burst creation until serviced by the DRAM
system.mem_ctrls.dram.avgQLat                 7220.88                       # Average queueing delay per DRAM burst
system.mem_ctrls.dram.avgBusLat               5000.00                       # Average bus latency per DRAM burst
system.mem_ctrls.dram.avgMemAccLat           25970.88                       # Average memory access latency per DRAM burst
system.mem_ctrls.dram.readRowHits                4499                       # Number of row buffer hits during reads
system.mem_ctrls.dram.writeRowHits                  0                       # Number of row buffer hits during writes
system.mem_ctrls.dram.readRowHitRate            79.64                       # Row buffer hit rate for reads
system.mem_ctrls.dram.writeRowHitRate             nan                       # Row buffer hit rate for writes
system.mem_ctrls.dram.bytesPerActivate::samples         1150                       # Bytes accessed per row activation
system.mem_ctrls.dram.bytesPerActivate::mean   314.379130                       # Bytes accessed per row activation
system.mem_ctrls.dram.bytesPerActivate::gmean   207.285770                       # Bytes accessed per row activation
system.mem_ctrls.dram.bytesPerActivate::stdev   293.959451                       # Bytes accessed per row activation
system.mem_ctrls.dram.bytesPerActivate::0-127          311     27.04%     27.04% # Bytes accessed per row activation
system.mem_ctrls.dram.bytesPerActivate::128-255          278     24.17%     51.22% # Bytes accessed per row activation
system.mem_ctrls.dram.bytesPerActivate::256-383          203     17.65%     68.87% # Bytes accessed per row activation
system.mem_ctrls.dram.bytesPerActivate::384-511          115     10.00%     78.87% # Bytes accessed per row activation
system.mem_ctrls.dram.bytesPerActivate::512-639           82      7.13%     86.00% # Bytes accessed per row activation
system.mem_ctrls.dram.bytesPerActivate::640-767           23      2.00%     88.00% # Bytes accessed per row activation
system.mem_ctrls.dram.bytesPerActivate::768-895           16      1.39%     89.39% # Bytes accessed per row activation
system.mem_ctrls.dram.bytesPerActivate::896-1023           14      1.22%     90.61% # Bytes accessed per row activation
system.mem_ctrls.dram.bytesPerActivate::1024-1151          108      9.39%    100.00% # Bytes accessed per row activation
system.mem_ctrls.dram.bytesPerActivate::total         1150                       # Bytes accessed per row activation
system.mem_ctrls.dram.bytesRead                361536                       # Total number of bytes read from DRAM
system.mem_ctrls.dram.bytesWritten                  0                       # Total number of bytes written to DRAM
system.mem_ctrls.dram.avgRdBW                2.580116                       # Average DRAM read bandwidth in MiBytes/s
system.mem_ctrls.dram.avgWrBW                       0                       # Average DRAM write bandwidth in MiBytes/s
system.mem_ctrls.dram.peakBW                 12800.00                       # Theoretical peak bandwidth in MiByte/s
system.mem_ctrls.dram.busUtil                    0.02                       # Data bus utilization in percentage
system.mem_ctrls.dram.busUtilRead                0.02                       # Data bus utilization in percentage for reads
system.mem_ctrls.dram.busUtilWrite               0.00                       # Data bus utilization in percentage for writes
system.mem_ctrls.dram.pageHitRate               79.64                       # Row buffer hit rate, read and write combined
system.mem_ctrls.dram.power_state.pwrStateResidencyTicks::UNDEFINED 140123931000                       # Cumulative time (in ticks) in various power states
system.mem_ctrls.dram.rank0.actEnergy         4519620                       # Energy for activate commands per rank (pJ)
system.mem_ctrls.dram.rank0.preEnergy         2402235                       # Energy for precharge commands per rank (pJ)
system.mem_ctrls.dram.rank0.readEnergy       20820240                       # Energy for read commands per rank (pJ)
system.mem_ctrls.dram.rank0.writeEnergy             0                       # Energy for write commands per rank (pJ)
system.mem_ctrls.dram.rank0.refreshEnergy 11061061440.000002                       # Energy for refresh commands per rank (pJ)
system.mem_ctrls.dram.rank0.actBackEnergy   2822201100                       # Energy for active background per rank (pJ)
system.mem_ctrls.dram.rank0.preBackEnergy  51430999200                       # Energy for precharge background per rank (pJ)
system.mem_ctrls.dram.rank0.actPowerDownEnergy            0                       # Energy for active power-down per rank (pJ)
system.mem_ctrls.dram.rank0.prePowerDownEnergy            0                       # Energy for precharge power-down per rank (pJ)
system.mem_ctrls.dram.rank0.selfRefreshEnergy            0                       # Energy for self refresh per rank (pJ)
system.mem_ctrls.dram.rank0.totalEnergy   65342003835                       # Total energy per rank (pJ)
system.mem_ctrls.dram.rank0.averagePower   466.315806                       # Core power per rank (mW)
system.mem_ctrls.dram.rank0.totalIdleTime            0                       # Total Idle time Per DRAM Rank
system.mem_ctrls.dram.rank0.pwrStateTime::IDLE 133682661000                       # Time in different power states
system.mem_ctrls.dram.rank0.pwrStateTime::REF   4678960000                       # Time in different power states
system.mem_ctrls.dram.rank0.pwrStateTime::SREF            0                       # Time in different power states
system.mem_ctrls.dram.rank0.pwrStateTime::PRE_PDN            0                       # Time in different power states
system.mem_ctrls.dram.rank0.pwrStateTime::ACT   1762310000                       # Time in different power states
system.mem_ctrls.dram.rank0.pwrStateTime::ACT_PDN            0                       # Time in different power states
system.mem_ctrls.dram.rank1.actEnergy         3691380                       # Energy for activate commands per rank (pJ)
system.mem_ctrls.dram.rank1.preEnergy         1962015                       # Energy for precharge commands per rank (pJ)
system.mem_ctrls.dram.rank1.readEnergy       19513620                       # Energy for read commands per rank (pJ)
system.mem_ctrls.dram.rank1.writeEnergy             0                       # Energy for write commands per rank (pJ)
system.mem_ctrls.dram.rank1.refreshEnergy 11061061440.000002                       # Energy for refresh commands per rank (pJ)
system.mem_ctrls.dram.rank1.actBackEnergy   2703215880                       # Energy for active background per rank (pJ)
system.mem_ctrls.dram.rank1.preBackEnergy  51531197280                       # Energy for precharge background per rank (pJ)
system.mem_ctrls.dram.rank1.actPowerDownEnergy            0                       # Energy for active power-down per rank (pJ)
system.mem_ctrls.dram.rank1.prePowerDownEnergy            0                       # Energy for precharge power-down per rank (pJ)
system.mem_ctrls.dram.rank1.selfRefreshEnergy            0                       # Energy for self refresh per rank (pJ)
system.mem_ctrls.dram.rank1.totalEnergy   65320641615                       # Total energy per rank (pJ)
system.mem_ctrls.dram.rank1.averagePower   466.163354                       # Core power per rank (mW)
system.mem_ctrls.dram.rank1.totalIdleTime            0                       # Total Idle time Per DRAM Rank
system.mem_ctrls.dram.rank1.pwrStateTime::IDLE 133944459750                       # Time in different power states
system.mem_ctrls.dram.rank1.pwrStateTime::REF   4678960000                       # Time in different power states
system.mem_ctrls.dram.rank1.pwrStateTime::SREF            0                       # Time in different power states
system.mem_ctrls.dram.rank1.pwrStateTime::PRE_PDN            0                       # Time in different power states
system.mem_ctrls.dram.rank1.pwrStateTime::ACT   1500511250                       # Time in different power states
system.mem_ctrls.dram.rank1.pwrStateTime::ACT_PDN            0                       # Time in different power states
system.mem_ctrls.power_state.pwrStateResidencyTicks::UNDEFINED 140123931000                       # Cumulative time (in ticks) in various power states
system.membus.trans_dist::ReadResp               1968                       # Transaction distribution
system.membus.trans_dist::ReadExReq              3681                       # Transaction distribution
system.membus.trans_dist::ReadExResp             3681                       # Transaction distribution
system.membus.trans_dist::ReadSharedReq          1968                       # Transaction distribution
system.membus.pkt_count_system.l2.mem_side_port::system.mem_ctrls.port        11298                       # Packet count per connected requestor and responder (bytes)
system.membus.pkt_count::total                  11298                       # Packet count per connected requestor and responder (bytes)
system.membus.pkt_size_system.l2.mem_side_port::system.mem_ctrls.port       361536                       # Cumulative packet size per connected requestor and responder (bytes)
system.membus.pkt_size::total                  361536                       # Cumulative packet size per connected requestor and responder (bytes)
system.membus.snoops                                0                       # Total snoops (count)
system.membus.snoopTraffic                          0                       # Total snoop traffic (bytes)
system.membus.snoop_fanout::samples              5649                       # Request fanout histogram
system.membus.snoop_fanout::mean                    0                       # Request fanout histogram
system.membus.snoop_fanout::stdev                   0                       # Request fanout histogram
system.membus.snoop_fanout::underflows              0      0.00%      0.00% # Request fanout histogram
system.membus.snoop_fanout::0                    5649    100.00%    100.00% # Request fanout histogram
system.membus.snoop_fanout::1                       0      0.00%    100.00% # Request fanout histogram
system.membus.snoop_fanout::overflows               0      0.00%    100.00% # Request fanout histogram
system.membus.snoop_fanout::min_value               0                       # Request fanout histogram
system.membus.snoop_fanout::max_value               0                       # Request fanout histogram
system.membus.snoop_fanout::total                5649                       # Request fanout histogram
system.membus.power_state.pwrStateResidencyTicks::UNDEFINED 140123931000                       # Cumulative time (in ticks) in various power states
system.membus.reqLayer0.occupancy             5649000                       # Layer occupancy (ticks)
system.membus.reqLayer0.utilization               0.0                       # Layer utilization (%)
system.membus.respLayer1.occupancy           29909000                       # Layer occupancy (ticks)
system.membus.respLayer1.utilization              0.0                       # Layer utilization (%)
system.tol2bus.trans_dist::ReadResp             36443                       # Transaction distribution
system.tol2bus.trans_dist::WritebackDirty       169473                       # Transaction distribution
system.tol2bus.trans_dist::WritebackClean         1026                       # Transaction distribution
system.tol2bus.trans_dist::CleanEvict            3741                       # Transaction distribution
system.tol2bus.trans_dist::ReadExReq           139643                       # Transaction distribution
system.tol2bus.trans_dist::ReadExResp          139643                       # Transaction distribution
system.tol2bus.trans_dist::ReadCleanReq          1848                       # Transaction distribution
system.tol2bus.trans_dist::ReadSharedReq        34595                       # Transaction distribution
system.tol2bus.pkt_count_system.cpu.icache.mem_side_port::system.l2.cpu_side_port         4722                       # Packet count per connected requestor and responder (bytes)
system.tol2bus.pkt_count_system.cpu.dcache.mem_side_port::system.l2.cpu_side_port       521690                       # Packet count per connected requestor and responder (bytes)
system.tol2bus.pkt_count::total                526412                       # Packet count per connected requestor and responder (bytes)
system.tol2bus.pkt_size_system.cpu.icache.mem_side_port::system.l2.cpu_side_port       183936                       # Cumulative packet size per connected requestor and responder (bytes)
system.tol2bus.pkt_size_system.cpu.dcache.mem_side_port::system.l2.cpu_side_port     21997504                       # Cumulative packet size per connected requestor and responder (bytes)
system.tol2bus.pkt_size::total               22181440                       # Cumulative packet size per connected requestor and responder (bytes)
system.tol2bus.snoops                               0                       # Total snoops (count)
system.tol2bus.snoopTraffic                         0                       # Total snoop traffic (bytes)
system.tol2bus.snoop_fanout::samples           176086                       # Request fanout histogram
system.tol2bus.snoop_fanout::mean            0.010864                       # Request fanout histogram
system.tol2bus.snoop_fanout::stdev           0.103663                       # Request fanout histogram
system.tol2bus.snoop_fanout::underflows             0      0.00%      0.00% # Request fanout histogram
system.tol2bus.snoop_fanout::0                 174173     98.91%     98.91% # Request fanout histogram
system.tol2bus.snoop_fanout::1                   1913      1.09%    100.00% # Request fanout histogram
system.tol2bus.snoop_fanout::2                      0      0.00%    100.00% # Request fanout histogram
system.tol2bus.snoop_fanout::overflows              0      0.00%    100.00% # Request fanout histogram
system.tol2bus.snoop_fanout::min_value              0                       # Request fanout histogram
system.tol2bus.snoop_fanout::max_value              1                       # Request fanout histogram
system.tol2bus.snoop_fanout::total             176086                       # Request fanout histogram
system.tol2bus.power_state.pwrStateResidencyTicks::UNDEFINED 140123931000                       # Cumulative time (in ticks) in various power states
system.tol2bus.reqLayer0.occupancy          691324000                       # Layer occupancy (ticks)
system.tol2bus.reqLayer0.utilization              0.5                       # Layer utilization (%)
system.tol2bus.respLayer0.occupancy           5545998                       # Layer occupancy (ticks)
system.tol2bus.respLayer0.utilization             0.0                       # Layer utilization (%)
system.tol2bus.respLayer1.occupancy         522719994                       # Layer occupancy (ticks)
system.tol2bus.respLayer1.utilization             0.4                       # Layer utilization (%)
system.voltage_domain.voltage                       1                       # Voltage in Volts

---------- End Simulation Statistics   ----------
