
---------- Begin Simulation Statistics ----------
final_tick                               462631705000                       # Number of ticks from beginning of simulation (restored from checkpoints and never reset)
host_inst_rate                                 282146                       # Simulator instruction rate (inst/s)
host_mem_usage                                 661716                       # Number of bytes of host memory used
host_op_rate                                   329622                       # Simulator op (including micro ops) rate (op/s)
host_seconds                                   354.43                       # Real time elapsed on the host
host_tick_rate                             1305298635                       # Simulator tick rate (ticks/s)
sim_freq                                 1000000000000                       # Frequency of simulated ticks
sim_insts                                   100000000                       # Number of instructions simulated
sim_ops                                     116826593                       # Number of ops (including micro ops) simulated
sim_seconds                                  0.462632                       # Number of seconds simulated
sim_ticks                                462631705000                       # Number of ticks simulated
system.cpu.committedInsts                   100000000                       # Number of instructions committed
system.cpu.committedOps                     116826593                       # Number of ops (including micro ops) committed
system.cpu.cpi                               4.626317                       # CPI: cycles per instruction
system.cpu.discardedOps                        392282                       # Number of ops (including micro ops) which were discarded before commit
system.cpu.idleCycles                       284059980                       # Total number of cycles that the object has spent stopped
system.cpu.ipc                               0.216155                       # IPC: instructions per cycle
system.cpu.numCycles                        462631705                       # number of cpu cycles simulated
system.cpu.numFetchSuspends                         0                       # Number of times Execute suspended instruction fetching
system.cpu.numWorkItemsCompleted                    0                       # number of work items this cpu completed
system.cpu.numWorkItemsStarted                      0                       # number of work items this cpu started
system.cpu.op_class_0::No_OpClass                   0      0.00%      0.00% # Class of committed instruction
system.cpu.op_class_0::IntAlu                65231396     55.84%     55.84% # Class of committed instruction
system.cpu.op_class_0::IntMult                 602374      0.52%     56.35% # Class of committed instruction
system.cpu.op_class_0::IntDiv                       0      0.00%     56.35% # Class of committed instruction
system.cpu.op_class_0::FloatAdd                     0      0.00%     56.35% # Class of committed instruction
system.cpu.op_class_0::FloatCmp                     0      0.00%     56.35% # Class of committed instruction
system.cpu.op_class_0::FloatCvt                     0      0.00%     56.35% # Class of committed instruction
system.cpu.op_class_0::FloatMult                    0      0.00%     56.35% # Class of committed instruction
system.cpu.op_class_0::FloatMultAcc                 0      0.00%     56.35% # Class of committed instruction
system.cpu.op_class_0::FloatDiv                     0      0.00%     56.35% # Class of committed instruction
system.cpu.op_class_0::FloatMisc                    0      0.00%     56.35% # Class of committed instruction
system.cpu.op_class_0::FloatSqrt                    0      0.00%     56.35% # Class of committed instruction
system.cpu.op_class_0::SimdAdd                    380      0.00%     56.35% # Class of committed instruction
system.cpu.op_class_0::SimdAddAcc                   0      0.00%     56.35% # Class of committed instruction
system.cpu.op_class_0::SimdAlu                    470      0.00%     56.35% # Class of committed instruction
system.cpu.op_class_0::SimdCmp                    382      0.00%     56.35% # Class of committed instruction
system.cpu.op_class_0::SimdCvt                      0      0.00%     56.35% # Class of committed instruction
system.cpu.op_class_0::SimdMisc                    53      0.00%     56.35% # Class of committed instruction
system.cpu.op_class_0::SimdMult                     0      0.00%     56.35% # Class of committed instruction
system.cpu.op_class_0::SimdMultAcc                  0      0.00%     56.35% # Class of committed instruction
system.cpu.op_class_0::SimdShift                    0      0.00%     56.35% # Class of committed instruction
system.cpu.op_class_0::SimdShiftAcc                 0      0.00%     56.35% # Class of committed instruction
system.cpu.op_class_0::SimdDiv                      0      0.00%     56.35% # Class of committed instruction
system.cpu.op_class_0::SimdSqrt                     0      0.00%     56.35% # Class of committed instruction
system.cpu.op_class_0::SimdFloatAdd            783705      0.67%     57.02% # Class of committed instruction
system.cpu.op_class_0::SimdFloatAlu                 0      0.00%     57.02% # Class of committed instruction
system.cpu.op_class_0::SimdFloatCmp            769156      0.66%     57.68% # Class of committed instruction
system.cpu.op_class_0::SimdFloatCvt            311548      0.27%     57.95% # Class of committed instruction
system.cpu.op_class_0::SimdFloatDiv            152211      0.13%     58.08% # Class of committed instruction
system.cpu.op_class_0::SimdFloatMisc           950762      0.81%     58.89% # Class of committed instruction
system.cpu.op_class_0::SimdFloatMult            86008      0.07%     58.97% # Class of committed instruction
system.cpu.op_class_0::SimdFloatMultAcc         12802      0.01%     58.98% # Class of committed instruction
system.cpu.op_class_0::SimdFloatSqrt                0      0.00%     58.98% # Class of committed instruction
system.cpu.op_class_0::SimdReduceAdd                0      0.00%     58.98% # Class of committed instruction
system.cpu.op_class_0::SimdReduceAlu                0      0.00%     58.98% # Class of committed instruction
system.cpu.op_class_0::SimdReduceCmp                0      0.00%     58.98% # Class of committed instruction
system.cpu.op_class_0::SimdFloatReduceAdd            0      0.00%     58.98% # Class of committed instruction
system.cpu.op_class_0::SimdFloatReduceCmp            0      0.00%     58.98% # Class of committed instruction
system.cpu.op_class_0::SimdAes                      0      0.00%     58.98% # Class of committed instruction
system.cpu.op_class_0::SimdAesMix                   0      0.00%     58.98% # Class of committed instruction
system.cpu.op_class_0::SimdSha1Hash                 0      0.00%     58.98% # Class of committed instruction
system.cpu.op_class_0::SimdSha1Hash2                0      0.00%     58.98% # Class of committed instruction
system.cpu.op_class_0::SimdSha256Hash               0      0.00%     58.98% # Class of committed instruction
system.cpu.op_class_0::SimdSha256Hash2              0      0.00%     58.98% # Class of committed instruction
system.cpu.op_class_0::SimdShaSigma2                0      0.00%     58.98% # Class of committed instruction
system.cpu.op_class_0::SimdShaSigma3                0      0.00%     58.98% # Class of committed instruction
system.cpu.op_class_0::SimdPredAlu                  0      0.00%     58.98% # Class of committed instruction
system.cpu.op_class_0::MemRead               30319972     25.95%     84.93% # Class of committed instruction
system.cpu.op_class_0::MemWrite              17605374     15.07%    100.00% # Class of committed instruction
system.cpu.op_class_0::FloatMemRead                 0      0.00%    100.00% # Class of committed instruction
system.cpu.op_class_0::FloatMemWrite                0      0.00%    100.00% # Class of committed instruction
system.cpu.op_class_0::IprAccess                    0      0.00%    100.00% # Class of committed instruction
system.cpu.op_class_0::InstPrefetch                 0      0.00%    100.00% # Class of committed instruction
system.cpu.op_class_0::total                116826593                       # Class of committed instruction
system.cpu.tickCycles                       178571725                       # Number of cycles that the object actually ticked
system.cpu.workload.numSyscalls                    33                       # Number of system calls
system.membus.snoop_filter.hit_multi_requests            0                       # Number of requests hitting in the snoop filter with multiple (>1) holders of the requested data.
system.membus.snoop_filter.hit_multi_snoops            0                       # Number of snoops hitting in the snoop filter with multiple (>1) holders of the requested data.
system.membus.snoop_filter.hit_single_requests           12                       # Number of requests hitting in the snoop filter with a single holder of the requested data.
system.membus.snoop_filter.hit_single_snoops            0                       # Number of snoops hitting in the snoop filter with a single holder of the requested data.
system.membus.snoop_filter.tot_requests          5609                       # Total number of requests made to the snoop filter.
system.membus.snoop_filter.tot_snoops               0                       # Total number of snoops made to the snoop filter.
system.tol2bus.snoop_filter.hit_multi_requests      1275466                       # Number of requests hitting in the snoop filter with multiple (>1) holders of the requested data.
system.tol2bus.snoop_filter.hit_multi_snoops            0                       # Number of snoops hitting in the snoop filter with multiple (>1) holders of the requested data.
system.tol2bus.snoop_filter.hit_single_requests     11372256                       # Number of requests hitting in the snoop filter with a single holder of the requested data.
system.tol2bus.snoop_filter.hit_single_snoops            0                       # Number of snoops hitting in the snoop filter with a single holder of the requested data.
system.tol2bus.snoop_filter.tot_requests     22745027                       # Total number of requests made to the snoop filter.
system.tol2bus.snoop_filter.tot_snoops              0                       # Total number of snoops made to the snoop filter.
system.clk_domain.clock                          1000                       # Clock period in ticks
system.cpu.branchPred.lookups                 5744343                       # Number of BP lookups
system.cpu.branchPred.condPredicted           4941009                       # Number of conditional branches predicted
system.cpu.branchPred.condIncorrect            188427                       # Number of conditional branches incorrect
system.cpu.branchPred.BTBLookups              3629411                       # Number of BTB lookups
system.cpu.branchPred.BTBHits                 3625421                       # Number of BTB hits
system.cpu.branchPred.BTBHitPct             99.890065                       # BTB Hit Percentage
system.cpu.branchPred.RASUsed                  240714                       # Number of times the RAS was used to get a target.
system.cpu.branchPred.RASIncorrect                  2                       # Number of incorrect RAS predictions.
system.cpu.branchPred.indirectLookups          151327                       # Number of indirect predictor lookups.
system.cpu.branchPred.indirectHits                239                       # Number of indirect target hits.
system.cpu.branchPred.indirectMisses           151088                       # Number of indirect misses.
system.cpu.branchPred.indirectMispredicted          198                       # Number of mispredicted indirect branches.
system.cpu.dcache.demand_hits::.cpu.data     47370713                       # number of demand (read+write) hits
system.cpu.dcache.demand_hits::total         47370713                       # number of demand (read+write) hits
system.cpu.dcache.overall_hits::.cpu.data     47395659                       # number of overall hits
system.cpu.dcache.overall_hits::total        47395659                       # number of overall hits
system.cpu.dcache.demand_misses::.cpu.data       402379                       # number of demand (read+write) misses
system.cpu.dcache.demand_misses::total         402379                       # number of demand (read+write) misses
system.cpu.dcache.overall_misses::.cpu.data       402650                       # number of overall misses
system.cpu.dcache.overall_misses::total        402650                       # number of overall misses
system.cpu.dcache.demand_miss_latency::.cpu.data   8910903000                       # number of demand (read+write) miss cycles
system.cpu.dcache.demand_miss_latency::total   8910903000                       # number of demand (read+write) miss cycles
system.cpu.dcache.overall_miss_latency::.cpu.data   8910903000                       # number of overall miss cycles
system.cpu.dcache.overall_miss_latency::total   8910903000                       # number of overall miss cycles
system.cpu.dcache.demand_accesses::.cpu.data     47773092                       # number of demand (read+write) accesses
system.cpu.dcache.demand_accesses::total     47773092                       # number of demand (read+write) accesses
system.cpu.dcache.overall_accesses::.cpu.data     47798309                       # number of overall (read+write) accesses
system.cpu.dcache.overall_accesses::total     47798309                       # number of overall (read+write) accesses
system.cpu.dcache.demand_miss_rate::.cpu.data     0.008423                       # miss rate for demand accesses
system.cpu.dcache.demand_miss_rate::total     0.008423                       # miss rate for demand accesses
system.cpu.dcache.overall_miss_rate::.cpu.data     0.008424                       # miss rate for overall accesses
system.cpu.dcache.overall_miss_rate::total     0.008424                       # miss rate for overall accesses
system.cpu.dcache.demand_avg_miss_latency::.cpu.data 22145.546860                       # average overall miss latency
system.cpu.dcache.demand_avg_miss_latency::total 22145.546860                       # average overall miss latency
system.cpu.dcache.overall_avg_miss_latency::.cpu.data 22130.641997                       # average overall miss latency
system.cpu.dcache.overall_avg_miss_latency::total 22130.641997                       # average overall miss latency
system.cpu.dcache.blocked_cycles::no_mshrs          112                       # number of cycles access was blocked
system.cpu.dcache.blocked_cycles::no_targets            0                       # number of cycles access was blocked
system.cpu.dcache.blocked::no_mshrs                 2                       # number of cycles access was blocked
system.cpu.dcache.blocked::no_targets               0                       # number of cycles access was blocked
system.cpu.dcache.avg_blocked_cycles::no_mshrs           56                       # average number of cycles each access was blocked
system.cpu.dcache.avg_blocked_cycles::no_targets          nan                       # average number of cycles each access was blocked
system.cpu.dcache.writebacks::.writebacks       232296                       # number of writebacks
system.cpu.dcache.writebacks::total            232296                       # number of writebacks
system.cpu.dcache.demand_mshr_hits::.cpu.data       164907                       # number of demand (read+write) MSHR hits
system.cpu.dcache.demand_mshr_hits::total       164907                       # number of demand (read+write) MSHR hits
system.cpu.dcache.overall_mshr_hits::.cpu.data       164907                       # number of overall MSHR hits
system.cpu.dcache.overall_mshr_hits::total       164907                       # number of overall MSHR hits
system.cpu.dcache.demand_mshr_misses::.cpu.data       237472                       # number of demand (read+write) MSHR misses
system.cpu.dcache.demand_mshr_misses::total       237472                       # number of demand (read+write) MSHR misses
system.cpu.dcache.overall_mshr_misses::.cpu.data       237739                       # number of overall MSHR misses
system.cpu.dcache.overall_mshr_misses::total       237739                       # number of overall MSHR misses
system.cpu.dcache.demand_mshr_miss_latency::.cpu.data   6114954000                       # number of demand (read+write) MSHR miss cycles
system.cpu.dcache.demand_mshr_miss_latency::total   6114954000                       # number of demand (read+write) MSHR miss cycles
system.cpu.dcache.overall_mshr_miss_latency::.cpu.data   6128315000                       # number of overall MSHR miss cycles
system.cpu.dcache.overall_mshr_miss_latency::total   6128315000                       # number of overall MSHR miss cycles
system.cpu.dcache.demand_mshr_miss_rate::.cpu.data     0.004971                       # mshr miss rate for demand accesses
system.cpu.dcache.demand_mshr_miss_rate::total     0.004971                       # mshr miss rate for demand accesses
system.cpu.dcache.overall_mshr_miss_rate::.cpu.data     0.004974                       # mshr miss rate for overall accesses
system.cpu.dcache.overall_mshr_miss_rate::total     0.004974                       # mshr miss rate for overall accesses
system.cpu.dcache.demand_avg_mshr_miss_latency::.cpu.data 25750.210551                       # average overall mshr miss latency
system.cpu.dcache.demand_avg_mshr_miss_latency::total 25750.210551                       # average overall mshr miss latency
system.cpu.dcache.overall_avg_mshr_miss_latency::.cpu.data 25777.491282                       # average overall mshr miss latency
system.cpu.dcache.overall_avg_mshr_miss_latency::total 25777.491282                       # average overall mshr miss latency
system.cpu.dcache.replacements                 237227                       # number of replacements
system.cpu.dcache.ReadReq_hits::.cpu.data     30247954                       # number of ReadReq hits
system.cpu.dcache.ReadReq_hits::total        30247954                       # number of ReadReq hits
system.cpu.dcache.ReadReq_misses::.cpu.data        50895                       # number of ReadReq misses
system.cpu.dcache.ReadReq_misses::total         50895                       # number of ReadReq misses
system.cpu.dcache.ReadReq_miss_latency::.cpu.data   1425699000                       # number of ReadReq miss cycles
system.cpu.dcache.ReadReq_miss_latency::total   1425699000                       # number of ReadReq miss cycles
system.cpu.dcache.ReadReq_accesses::.cpu.data     30298849                       # number of ReadReq accesses(hits+misses)
system.cpu.dcache.ReadReq_accesses::total     30298849                       # number of ReadReq accesses(hits+misses)
system.cpu.dcache.ReadReq_miss_rate::.cpu.data     0.001680                       # miss rate for ReadReq accesses
system.cpu.dcache.ReadReq_miss_rate::total     0.001680                       # miss rate for ReadReq accesses
system.cpu.dcache.ReadReq_avg_miss_latency::.cpu.data 28012.555261                       # average ReadReq miss latency
system.cpu.dcache.ReadReq_avg_miss_latency::total 28012.555261                       # average ReadReq miss latency
system.cpu.dcache.ReadReq_mshr_hits::.cpu.data          558                       # number of ReadReq MSHR hits
system.cpu.dcache.ReadReq_mshr_hits::total          558                       # number of ReadReq MSHR hits
system.cpu.dcache.ReadReq_mshr_misses::.cpu.data        50337                       # number of ReadReq MSHR misses
system.cpu.dcache.ReadReq_mshr_misses::total        50337                       # number of ReadReq MSHR misses
system.cpu.dcache.ReadReq_mshr_miss_latency::.cpu.data   1305124000                       # number of ReadReq MSHR miss cycles
system.cpu.dcache.ReadReq_mshr_miss_latency::total   1305124000                       # number of ReadReq MSHR miss cycles
system.cpu.dcache.ReadReq_mshr_miss_rate::.cpu.data     0.001661                       # mshr miss rate for ReadReq accesses
system.cpu.dcache.ReadReq_mshr_miss_rate::total     0.001661                       # mshr miss rate for ReadReq accesses
system.cpu.dcache.ReadReq_avg_mshr_miss_latency::.cpu.data 25927.727119                       # average ReadReq mshr miss latency
system.cpu.dcache.ReadReq_avg_mshr_miss_latency::total 25927.727119                       # average ReadReq mshr miss latency
system.cpu.dcache.WriteReq_hits::.cpu.data     17122759                       # number of WriteReq hits
system.cpu.dcache.WriteReq_hits::total       17122759                       # number of WriteReq hits
system.cpu.dcache.WriteReq_misses::.cpu.data       351484                       # number of WriteReq misses
system.cpu.dcache.WriteReq_misses::total       351484                       # number of WriteReq misses
system.cpu.dcache.WriteReq_miss_latency::.cpu.data   7485204000                       # number of WriteReq miss cycles
system.cpu.dcache.WriteReq_miss_latency::total   7485204000                       # number of WriteReq miss cycles
system.cpu.dcache.WriteReq_accesses::.cpu.data     17474243                       # number of WriteReq accesses(hits+misses)
system.cpu.dcache.WriteReq_accesses::total     17474243                       # number of WriteReq accesses(hits+misses)
system.cpu.dcache.WriteReq_miss_rate::.cpu.data     0.020114                       # miss rate for WriteReq accesses
system.cpu.dcache.WriteReq_miss_rate::total     0.020114                       # miss rate for WriteReq accesses
system.cpu.dcache.WriteReq_avg_miss_latency::.cpu.data 21296.002094                       # average WriteReq miss latency
system.cpu.dcache.WriteReq_avg_miss_latency::total 21296.002094                       # average WriteReq miss latency
system.cpu.dcache.WriteReq_mshr_hits::.cpu.data       164349                       # number of WriteReq MSHR hits
system.cpu.dcache.WriteReq_mshr_hits::total       164349                       # number of WriteReq MSHR hits
system.cpu.dcache.WriteReq_mshr_misses::.cpu.data       187135                       # number of WriteReq MSHR misses
system.cpu.dcache.WriteReq_mshr_misses::total       187135                       # number of WriteReq MSHR misses
system.cpu.dcache.WriteReq_mshr_miss_latency::.cpu.data   4809830000                       # number of WriteReq MSHR miss cycles
system.cpu.dcache.WriteReq_mshr_miss_latency::total   4809830000                       # number of WriteReq MSHR miss cycles
system.cpu.dcache.WriteReq_mshr_miss_rate::.cpu.data     0.010709                       # mshr miss rate for WriteReq accesses
system.cpu.dcache.WriteReq_mshr_miss_rate::total     0.010709                       # mshr miss rate for WriteReq accesses
system.cpu.dcache.WriteReq_avg_mshr_miss_latency::.cpu.data 25702.460790                       # average WriteReq mshr miss latency
system.cpu.dcache.WriteReq_avg_mshr_miss_latency::total 25702.460790                       # average WriteReq mshr miss latency
system.cpu.dcache.SoftPFReq_hits::.cpu.data        24946                       # number of SoftPFReq hits
system.cpu.dcache.SoftPFReq_hits::total         24946                       # number of SoftPFReq hits
system.cpu.dcache.SoftPFReq_misses::.cpu.data          271                       # number of SoftPFReq misses
system.cpu.dcache.SoftPFReq_misses::total          271                       # number of SoftPFReq misses
system.cpu.dcache.SoftPFReq_accesses::.cpu.data        25217                       # number of SoftPFReq accesses(hits+misses)
system.cpu.dcache.SoftPFReq_accesses::total        25217                       # number of SoftPFReq accesses(hits+misses)
system.cpu.dcache.SoftPFReq_miss_rate::.cpu.data     0.010747                       # miss rate for SoftPFReq accesses
system.cpu.dcache.SoftPFReq_miss_rate::total     0.010747                       # miss rate for SoftPFReq accesses
system.cpu.dcache.SoftPFReq_mshr_misses::.cpu.data          267                       # number of SoftPFReq MSHR misses
system.cpu.dcache.SoftPFReq_mshr_misses::total          267                       # number of SoftPFReq MSHR misses
system.cpu.dcache.SoftPFReq_mshr_miss_latency::.cpu.data     13361000                       # number of SoftPFReq MSHR miss cycles
system.cpu.dcache.SoftPFReq_mshr_miss_latency::total     13361000                       # number of SoftPFReq MSHR miss cycles
system.cpu.dcache.SoftPFReq_mshr_miss_rate::.cpu.data     0.010588                       # mshr miss rate for SoftPFReq accesses
system.cpu.dcache.SoftPFReq_mshr_miss_rate::total     0.010588                       # mshr miss rate for SoftPFReq accesses
system.cpu.dcache.SoftPFReq_avg_mshr_miss_latency::.cpu.data 50041.198502                       # average SoftPFReq mshr miss latency
system.cpu.dcache.SoftPFReq_avg_mshr_miss_latency::total 50041.198502                       # average SoftPFReq mshr miss latency
system.cpu.dcache.LoadLockedReq_hits::.cpu.data          166                       # number of LoadLockedReq hits
system.cpu.dcache.LoadLockedReq_hits::total          166                       # number of LoadLockedReq hits
system.cpu.dcache.LoadLockedReq_accesses::.cpu.data          166                       # number of LoadLockedReq accesses(hits+misses)
system.cpu.dcache.LoadLockedReq_accesses::total          166                       # number of LoadLockedReq accesses(hits+misses)
system.cpu.dcache.StoreCondReq_hits::.cpu.data          166                       # number of StoreCondReq hits
system.cpu.dcache.StoreCondReq_hits::total          166                       # number of StoreCondReq hits
system.cpu.dcache.StoreCondReq_accesses::.cpu.data          166                       # number of StoreCondReq accesses(hits+misses)
system.cpu.dcache.StoreCondReq_accesses::total          166                       # number of StoreCondReq accesses(hits+misses)
system.cpu.dcache.power_state.pwrStateResidencyTicks::UNDEFINED 462631705000                       # Cumulative time (in ticks) in various power states
system.cpu.dcache.tags.tagsinuse           510.903316                       # Cycle average of tags in use
system.cpu.dcache.tags.total_refs            47633730                       # Total number of references to valid blocks.
system.cpu.dcache.tags.sampled_refs            237739                       # Sample count of references to valid blocks.
system.cpu.dcache.tags.avg_refs            200.361447                       # Average number of references to valid blocks.
system.cpu.dcache.tags.warmup_cycle            223000                       # Cycle when the warmup percentage was hit.
system.cpu.dcache.tags.occ_blocks::.cpu.data   510.903316                       # Average occupied blocks per requestor
system.cpu.dcache.tags.occ_percent::.cpu.data     0.997858                       # Average percentage of cache occupancy
system.cpu.dcache.tags.occ_percent::total     0.997858                       # Average percentage of cache occupancy
system.cpu.dcache.tags.occ_task_id_blocks::1024          512                       # Occupied blocks per task id
system.cpu.dcache.tags.age_task_id_blocks_1024::0           13                       # Occupied blocks per task id
system.cpu.dcache.tags.age_task_id_blocks_1024::1           88                       # Occupied blocks per task id
system.cpu.dcache.tags.age_task_id_blocks_1024::2          193                       # Occupied blocks per task id
system.cpu.dcache.tags.age_task_id_blocks_1024::3          199                       # Occupied blocks per task id
system.cpu.dcache.tags.age_task_id_blocks_1024::4           19                       # Occupied blocks per task id
system.cpu.dcache.tags.occ_task_id_percent::1024            1                       # Percentage of cache occupancy per task id
system.cpu.dcache.tags.tag_accesses          95835021                       # Number of tag accesses
system.cpu.dcache.tags.data_accesses         95835021                       # Number of data accesses
system.cpu.dcache.tags.power_state.pwrStateResidencyTicks::UNDEFINED 462631705000                       # Cumulative time (in ticks) in various power states
system.cpu.dtb.instHits                             0                       # ITB inst hits
system.cpu.dtb.instMisses                           0                       # ITB inst misses
system.cpu.dtb.readHits                             0                       # DTB read hits
system.cpu.dtb.readMisses                           0                       # DTB read misses
system.cpu.dtb.writeHits                            0                       # DTB write hits
system.cpu.dtb.writeMisses                          0                       # DTB write misses
system.cpu.dtb.inserts                              0                       # Number of times an entry is inserted into the TLB
system.cpu.dtb.flushTlb                             0                       # Number of times complete TLB was flushed
system.cpu.dtb.flushTlbMva                          0                       # Number of times TLB was flushed by MVA
system.cpu.dtb.flushTlbMvaAsid                      0                       # Number of times TLB was flushed by MVA & ASID
system.cpu.dtb.flushTlbAsid                         0                       # Number of times TLB was flushed by ASID
system.cpu.dtb.flushedEntries                       0                       # Number of entries that have been flushed from TLB
system.cpu.dtb.alignFaults                          0                       # Number of TLB faults due to alignment restrictions
system.cpu.dtb.prefetchFaults                       0                       # Number of TLB faults due to prefetch
system.cpu.dtb.domainFaults                         0                       # Number of TLB faults due to domain restrictions
system.cpu.dtb.permsFaults                          0                       # Number of TLB faults due to permissions restrictions
system.cpu.dtb.readAccesses                         0                       # DTB read accesses
system.cpu.dtb.writeAccesses                        0                       # DTB write accesses
system.cpu.dtb.instAccesses                         0                       # ITB inst accesses
system.cpu.dtb.hits                                 0                       # Total TLB (inst and data) hits
system.cpu.dtb.misses                               0                       # Total TLB (inst and data) misses
system.cpu.dtb.accesses                             0                       # Total TLB (inst and data) accesses
system.cpu.dtb.stage2_mmu.stage2_tlb.instHits            0                       # ITB inst hits
system.cpu.dtb.stage2_mmu.stage2_tlb.instMisses            0                       # ITB inst misses
system.cpu.dtb.stage2_mmu.stage2_tlb.readHits            0                       # DTB read hits
system.cpu.dtb.stage2_mmu.stage2_tlb.readMisses            0                       # DTB read misses
system.cpu.dtb.stage2_mmu.stage2_tlb.writeHits            0                       # DTB write hits
system.cpu.dtb.stage2_mmu.stage2_tlb.writeMisses            0                       # DTB write misses
system.cpu.dtb.stage2_mmu.stage2_tlb.inserts            0                       # Number of times an entry is inserted into the TLB
system.cpu.dtb.stage2_mmu.stage2_tlb.flushTlb            0                       # Number of times complete TLB was flushed
system.cpu.dtb.stage2_mmu.stage2_tlb.flushTlbMva            0                       # Number of times TLB was flushed by MVA
system.cpu.dtb.stage2_mmu.stage2_tlb.flushTlbMvaAsid            0                       # Number of times TLB was flushed by MVA & ASID
system.cpu.dtb.stage2_mmu.stage2_tlb.flushTlbAsid            0                       # Number of times TLB was flushed by ASID
system.cpu.dtb.stage2_mmu.stage2_tlb.flushedEntries            0                       # Number of entries that have been flushed from TLB
system.cpu.dtb.stage2_mmu.stage2_tlb.alignFaults            0                       # Number of TLB faults due to alignment restrictions
system.cpu.dtb.stage2_mmu.stage2_tlb.prefetchFaults            0                       # Number of TLB faults due to prefetch
system.cpu.dtb.stage2_mmu.stage2_tlb.domainFaults            0                       # Number of TLB faults due to domain restrictions
system.cpu.dtb.stage2_mmu.stage2_tlb.permsFaults            0                       # Number of TLB faults due to permissions restrictions
system.cpu.dtb.stage2_mmu.stage2_tlb.readAccesses            0                       # DTB read accesses
system.cpu.dtb.stage2_mmu.stage2_tlb.writeAccesses            0                       # DTB write accesses
system.cpu.dtb.stage2_mmu.stage2_tlb.instAccesses            0                       # ITB inst accesses
system.cpu.dtb.stage2_mmu.stage2_tlb.hits            0                       # Total TLB (inst and data) hits
system.cpu.dtb.stage2_mmu.stage2_tlb.misses            0                       # Total TLB (inst and data) misses
system.cpu.dtb.stage2_mmu.stage2_tlb.accesses            0                       # Total TLB (inst and data) accesses
system.cpu.dtb.stage2_mmu.stage2_tlb.walker.walks            0                       # Table walker walks requested
system.cpu.dtb.stage2_mmu.stage2_tlb.walker.requestOrigin_Requested::Data            0                       # Table walker requests started/completed, data/inst
system.cpu.dtb.stage2_mmu.stage2_tlb.walker.requestOrigin_Requested::Inst            0                       # Table walker requests started/completed, data/inst
system.cpu.dtb.stage2_mmu.stage2_tlb.walker.requestOrigin_Requested::total            0                       # Table walker requests started/completed, data/inst
system.cpu.dtb.stage2_mmu.stage2_tlb.walker.requestOrigin_Completed::Data            0                       # Table walker requests started/completed, data/inst
system.cpu.dtb.stage2_mmu.stage2_tlb.walker.requestOrigin_Completed::Inst            0                       # Table walker requests started/completed, data/inst
system.cpu.dtb.stage2_mmu.stage2_tlb.walker.requestOrigin_Completed::total            0                       # Table walker requests started/completed, data/inst
system.cpu.dtb.stage2_mmu.stage2_tlb.walker.requestOrigin::total            0                       # Table walker requests started/completed, data/inst
system.cpu.dtb.stage2_mmu.stage2_tlb.walker.power_state.pwrStateResidencyTicks::UNDEFINED 462631705000                       # Cumulative time (in ticks) in various power states
system.cpu.dtb.walker.walks                         0                       # Table walker walks requested
system.cpu.dtb.walker.requestOrigin_Requested::Data            0                       # Table walker requests started/completed, data/inst
system.cpu.dtb.walker.requestOrigin_Requested::Inst            0                       # Table walker requests started/completed, data/inst
system.cpu.dtb.walker.requestOrigin_Requested::total            0                       # Table walker requests started/completed, data/inst
system.cpu.dtb.walker.requestOrigin_Completed::Data            0                       # Table walker requests started/completed, data/inst
system.cpu.dtb.walker.requestOrigin_Completed::Inst            0                       # Table walker requests started/completed, data/inst
system.cpu.dtb.walker.requestOrigin_Completed::total            0                       # Table walker requests started/completed, data/inst
system.cpu.dtb.walker.requestOrigin::total            0                       # Table walker requests started/completed, data/inst
system.cpu.dtb.walker.power_state.pwrStateResidencyTicks::UNDEFINED 462631705000                       # Cumulative time (in ticks) in various power states
system.cpu.fetch2.intInstructions            37153819                       # Number of integer instructions successfully decoded
system.cpu.fetch2.fpInstructions                    0                       # Number of floating point instructions successfully decoded
system.cpu.fetch2.vecInstructions                   0                       # Number of SIMD instructions successfully decoded
system.cpu.fetch2.loadInstructions           17174757                       # Number of memory load instructions successfully decoded
system.cpu.fetch2.storeInstructions          14131919                       # Number of memory store instructions successfully decoded
system.cpu.fetch2.amoInstructions                   0                       # Number of memory atomic instructions successfully decoded
system.cpu.icache.demand_hits::.cpu.inst      1419831                       # number of demand (read+write) hits
system.cpu.icache.demand_hits::total          1419831                       # number of demand (read+write) hits
system.cpu.icache.overall_hits::.cpu.inst      1419831                       # number of overall hits
system.cpu.icache.overall_hits::total         1419831                       # number of overall hits
system.cpu.icache.demand_misses::.cpu.inst     11135032                       # number of demand (read+write) misses
system.cpu.icache.demand_misses::total       11135032                       # number of demand (read+write) misses
system.cpu.icache.overall_misses::.cpu.inst     11135032                       # number of overall misses
system.cpu.icache.overall_misses::total      11135032                       # number of overall misses
system.cpu.icache.demand_miss_latency::.cpu.inst 435461329000                       # number of demand (read+write) miss cycles
system.cpu.icache.demand_miss_latency::total 435461329000                       # number of demand (read+write) miss cycles
system.cpu.icache.overall_miss_latency::.cpu.inst 435461329000                       # number of overall miss cycles
system.cpu.icache.overall_miss_latency::total 435461329000                       # number of overall miss cycles
system.cpu.icache.demand_accesses::.cpu.inst     12554863                       # number of demand (read+write) accesses
system.cpu.icache.demand_accesses::total     12554863                       # number of demand (read+write) accesses
system.cpu.icache.overall_accesses::.cpu.inst     12554863                       # number of overall (read+write) accesses
system.cpu.icache.overall_accesses::total     12554863                       # number of overall (read+write) accesses
system.cpu.icache.demand_miss_rate::.cpu.inst     0.886910                       # miss rate for demand accesses
system.cpu.icache.demand_miss_rate::total     0.886910                       # miss rate for demand accesses
system.cpu.icache.overall_miss_rate::.cpu.inst     0.886910                       # miss rate for overall accesses
system.cpu.icache.overall_miss_rate::total     0.886910                       # miss rate for overall accesses
system.cpu.icache.demand_avg_miss_latency::.cpu.inst 39107.326230                       # average overall miss latency
system.cpu.icache.demand_avg_miss_latency::total 39107.326230                       # average overall miss latency
system.cpu.icache.overall_avg_miss_latency::.cpu.inst 39107.326230                       # average overall miss latency
system.cpu.icache.overall_avg_miss_latency::total 39107.326230                       # average overall miss latency
system.cpu.icache.blocked_cycles::no_mshrs            0                       # number of cycles access was blocked
system.cpu.icache.blocked_cycles::no_targets            0                       # number of cycles access was blocked
system.cpu.icache.blocked::no_mshrs                 0                       # number of cycles access was blocked
system.cpu.icache.blocked::no_targets               0                       # number of cycles access was blocked
system.cpu.icache.avg_blocked_cycles::no_mshrs          nan                       # average number of cycles each access was blocked
system.cpu.icache.avg_blocked_cycles::no_targets          nan                       # average number of cycles each access was blocked
system.cpu.icache.writebacks::.writebacks     11135030                       # number of writebacks
system.cpu.icache.writebacks::total          11135030                       # number of writebacks
system.cpu.icache.demand_mshr_misses::.cpu.inst     11135032                       # number of demand (read+write) MSHR misses
system.cpu.icache.demand_mshr_misses::total     11135032                       # number of demand (read+write) MSHR misses
system.cpu.icache.overall_mshr_misses::.cpu.inst     11135032                       # number of overall MSHR misses
system.cpu.icache.overall_mshr_misses::total     11135032                       # number of overall MSHR misses
system.cpu.icache.demand_mshr_miss_latency::.cpu.inst 413191265000                       # number of demand (read+write) MSHR miss cycles
system.cpu.icache.demand_mshr_miss_latency::total 413191265000                       # number of demand (read+write) MSHR miss cycles
system.cpu.icache.overall_mshr_miss_latency::.cpu.inst 413191265000                       # number of overall MSHR miss cycles
system.cpu.icache.overall_mshr_miss_latency::total 413191265000                       # number of overall MSHR miss cycles
system.cpu.icache.demand_mshr_miss_rate::.cpu.inst     0.886910                       # mshr miss rate for demand accesses
system.cpu.icache.demand_mshr_miss_rate::total     0.886910                       # mshr miss rate for demand accesses
system.cpu.icache.overall_mshr_miss_rate::.cpu.inst     0.886910                       # mshr miss rate for overall accesses
system.cpu.icache.overall_mshr_miss_rate::total     0.886910                       # mshr miss rate for overall accesses
system.cpu.icache.demand_avg_mshr_miss_latency::.cpu.inst 37107.326230                       # average overall mshr miss latency
system.cpu.icache.demand_avg_mshr_miss_latency::total 37107.326230                       # average overall mshr miss latency
system.cpu.icache.overall_avg_mshr_miss_latency::.cpu.inst 37107.326230                       # average overall mshr miss latency
system.cpu.icache.overall_avg_mshr_miss_latency::total 37107.326230                       # average overall mshr miss latency
system.cpu.icache.replacements               11135030                       # number of replacements
system.cpu.icache.ReadReq_hits::.cpu.inst      1419831                       # number of ReadReq hits
system.cpu.icache.ReadReq_hits::total         1419831                       # number of ReadReq hits
system.cpu.icache.ReadReq_misses::.cpu.inst     11135032                       # number of ReadReq misses
system.cpu.icache.ReadReq_misses::total      11135032                       # number of ReadReq misses
system.cpu.icache.ReadReq_miss_latency::.cpu.inst 435461329000                       # number of ReadReq miss cycles
system.cpu.icache.ReadReq_miss_latency::total 435461329000                       # number of ReadReq miss cycles
system.cpu.icache.ReadReq_accesses::.cpu.inst     12554863                       # number of ReadReq accesses(hits+misses)
system.cpu.icache.ReadReq_accesses::total     12554863                       # number of ReadReq accesses(hits+misses)
system.cpu.icache.ReadReq_miss_rate::.cpu.inst     0.886910                       # miss rate for ReadReq accesses
system.cpu.icache.ReadReq_miss_rate::total     0.886910                       # miss rate for ReadReq accesses
system.cpu.icache.ReadReq_avg_miss_latency::.cpu.inst 39107.326230                       # average ReadReq miss latency
system.cpu.icache.ReadReq_avg_miss_latency::total 39107.326230                       # average ReadReq miss latency
system.cpu.icache.ReadReq_mshr_misses::.cpu.inst     11135032                       # number of ReadReq MSHR misses
system.cpu.icache.ReadReq_mshr_misses::total     11135032                       # number of ReadReq MSHR misses
system.cpu.icache.ReadReq_mshr_miss_latency::.cpu.inst 413191265000                       # number of ReadReq MSHR miss cycles
system.cpu.icache.ReadReq_mshr_miss_latency::total 413191265000                       # number of ReadReq MSHR miss cycles
system.cpu.icache.ReadReq_mshr_miss_rate::.cpu.inst     0.886910                       # mshr miss rate for ReadReq accesses
system.cpu.icache.ReadReq_mshr_miss_rate::total     0.886910                       # mshr miss rate for ReadReq accesses
system.cpu.icache.ReadReq_avg_mshr_miss_latency::.cpu.inst 37107.326230                       # average ReadReq mshr miss latency
system.cpu.icache.ReadReq_avg_mshr_miss_latency::total 37107.326230                       # average ReadReq mshr miss latency
system.cpu.icache.power_state.pwrStateResidencyTicks::UNDEFINED 462631705000                       # Cumulative time (in ticks) in various power states
system.cpu.icache.tags.tagsinuse             1.999999                       # Cycle average of tags in use
system.cpu.icache.tags.total_refs            12554863                       # Total number of references to valid blocks.
system.cpu.icache.tags.sampled_refs          11135032                       # Sample count of references to valid blocks.
system.cpu.icache.tags.avg_refs              1.127510                       # Average number of references to valid blocks.
system.cpu.icache.tags.warmup_cycle            108000                       # Cycle when the warmup percentage was hit.
system.cpu.icache.tags.occ_blocks::.cpu.inst     1.999999                       # Average occupied blocks per requestor
system.cpu.icache.tags.occ_percent::.cpu.inst     1.000000                       # Average percentage of cache occupancy
system.cpu.icache.tags.occ_percent::total     1.000000                       # Average percentage of cache occupancy
system.cpu.icache.tags.occ_task_id_blocks::1024            2                       # Occupied blocks per task id
system.cpu.icache.tags.age_task_id_blocks_1024::0            2                       # Occupied blocks per task id
system.cpu.icache.tags.occ_task_id_percent::1024            1                       # Percentage of cache occupancy per task id
system.cpu.icache.tags.tag_accesses          36244758                       # Number of tag accesses
system.cpu.icache.tags.data_accesses         36244758                       # Number of data accesses
system.cpu.icache.tags.power_state.pwrStateResidencyTicks::UNDEFINED 462631705000                       # Cumulative time (in ticks) in various power states
system.cpu.itb.instHits                             0                       # ITB inst hits
system.cpu.itb.instMisses                           0                       # ITB inst misses
system.cpu.itb.readHits                             0                       # DTB read hits
system.cpu.itb.readMisses                           0                       # DTB read misses
system.cpu.itb.writeHits                            0                       # DTB write hits
system.cpu.itb.writeMisses                          0                       # DTB write misses
system.cpu.itb.inserts                              0                       # Number of times an entry is inserted into the TLB
system.cpu.itb.flushTlb                             0                       # Number of times complete TLB was flushed
system.cpu.itb.flushTlbMva                          0                       # Number of times TLB was flushed by MVA
system.cpu.itb.flushTlbMvaAsid                      0                       # Number of times TLB was flushed by MVA & ASID
system.cpu.itb.flushTlbAsid                         0                       # Number of times TLB was flushed by ASID
system.cpu.itb.flushedEntries                       0                       # Number of entries that have been flushed from TLB
system.cpu.itb.alignFaults                          0                       # Number of TLB faults due to alignment restrictions
system.cpu.itb.prefetchFaults                       0                       # Number of TLB faults due to prefetch
system.cpu.itb.domainFaults                         0                       # Number of TLB faults due to domain restrictions
system.cpu.itb.permsFaults                          0                       # Number of TLB faults due to permissions restrictions
system.cpu.itb.readAccesses                         0                       # DTB read accesses
system.cpu.itb.writeAccesses                        0                       # DTB write accesses
system.cpu.itb.instAccesses                         0                       # ITB inst accesses
system.cpu.itb.hits                                 0                       # Total TLB (inst and data) hits
system.cpu.itb.misses                               0                       # Total TLB (inst and data) misses
system.cpu.itb.accesses                             0                       # Total TLB (inst and data) accesses
system.cpu.itb.stage2_mmu.stage2_tlb.instHits            0                       # ITB inst hits
system.cpu.itb.stage2_mmu.stage2_tlb.instMisses            0                       # ITB inst misses
system.cpu.itb.stage2_mmu.stage2_tlb.readHits            0                       # DTB read hits
system.cpu.itb.stage2_mmu.stage2_tlb.readMisses            0                       # DTB read misses
system.cpu.itb.stage2_mmu.stage2_tlb.writeHits            0                       # DTB write hits
system.cpu.itb.stage2_mmu.stage2_tlb.writeMisses            0                       # DTB write misses
system.cpu.itb.stage2_mmu.stage2_tlb.inserts            0                       # Number of times an entry is inserted into the TLB
system.cpu.itb.stage2_mmu.stage2_tlb.flushTlb            0                       # Number of times complete TLB was flushed
system.cpu.itb.stage2_mmu.stage2_tlb.flushTlbMva            0                       # Number of times TLB was flushed by MVA
system.cpu.itb.stage2_mmu.stage2_tlb.flushTlbMvaAsid            0                       # Number of times TLB was flushed by MVA & ASID
system.cpu.itb.stage2_mmu.stage2_tlb.flushTlbAsid            0                       # Number of times TLB was flushed by ASID
system.cpu.itb.stage2_mmu.stage2_tlb.flushedEntries            0                       # Number of entries that have been flushed from TLB
system.cpu.itb.stage2_mmu.stage2_tlb.alignFaults            0                       # Number of TLB faults due to alignment restrictions
system.cpu.itb.stage2_mmu.stage2_tlb.prefetchFaults            0                       # Number of TLB faults due to prefetch
system.cpu.itb.stage2_mmu.stage2_tlb.domainFaults            0                       # Number of TLB faults due to domain restrictions
system.cpu.itb.stage2_mmu.stage2_tlb.permsFaults            0                       # Number of TLB faults due to permissions restrictions
system.cpu.itb.stage2_mmu.stage2_tlb.readAccesses            0                       # DTB read accesses
system.cpu.itb.stage2_mmu.stage2_tlb.writeAccesses            0                       # DTB write accesses
system.cpu.itb.stage2_mmu.stage2_tlb.instAccesses            0                       # ITB inst accesses
system.cpu.itb.stage2_mmu.stage2_tlb.hits            0                       # Total TLB (inst and data) hits
system.cpu.itb.stage2_mmu.stage2_tlb.misses            0                       # Total TLB (inst and data) misses
system.cpu.itb.stage2_mmu.stage2_tlb.accesses            0                       # Total TLB (inst and data) accesses
system.cpu.itb.stage2_mmu.stage2_tlb.walker.walks            0                       # Table walker walks requested
system.cpu.itb.stage2_mmu.stage2_tlb.walker.requestOrigin_Requested::Data            0                       # Table walker requests started/completed, data/inst
system.cpu.itb.stage2_mmu.stage2_tlb.walker.requestOrigin_Requested::Inst            0                       # Table walker requests started/completed, data/inst
system.cpu.itb.stage2_mmu.stage2_tlb.walker.requestOrigin_Requested::total            0                       # Table walker requests started/completed, data/inst
system.cpu.itb.stage2_mmu.stage2_tlb.walker.requestOrigin_Completed::Data            0                       # Table walker requests started/completed, data/inst
system.cpu.itb.stage2_mmu.stage2_tlb.walker.requestOrigin_Completed::Inst            0                       # Table walker requests started/completed, data/inst
system.cpu.itb.stage2_mmu.stage2_tlb.walker.requestOrigin_Completed::total            0                       # Table walker requests started/completed, data/inst
system.cpu.itb.stage2_mmu.stage2_tlb.walker.requestOrigin::total            0                       # Table walker requests started/completed, data/inst
system.cpu.itb.stage2_mmu.stage2_tlb.walker.power_state.pwrStateResidencyTicks::UNDEFINED 462631705000                       # Cumulative time (in ticks) in various power states
system.cpu.itb.walker.walks                         0                       # Table walker walks requested
system.cpu.itb.walker.requestOrigin_Requested::Data            0                       # Table walker requests started/completed, data/inst
system.cpu.itb.walker.requestOrigin_Requested::Inst            0                       # Table walker requests started/completed, data/inst
system.cpu.itb.walker.requestOrigin_Requested::total            0                       # Table walker requests started/completed, data/inst
system.cpu.itb.walker.requestOrigin_Completed::Data            0                       # Table walker requests started/completed, data/inst
system.cpu.itb.walker.requestOrigin_Completed::Inst            0                       # Table walker requests started/completed, data/inst
system.cpu.itb.walker.requestOrigin_Completed::total            0                       # Table walker requests started/completed, data/inst
system.cpu.itb.walker.requestOrigin::total            0                       # Table walker requests started/completed, data/inst
system.cpu.itb.walker.power_state.pwrStateResidencyTicks::UNDEFINED 462631705000                       # Cumulative time (in ticks) in various power states
system.cpu.power_state.pwrStateResidencyTicks::ON 462631705000                       # Cumulative time (in ticks) in various power states
system.cpu.thread_0.numInsts                100000000                       # Number of Instructions committed
system.cpu.thread_0.numOps                  116826593                       # Number of Ops committed
system.cpu.thread_0.numMemRefs                      0                       # Number of Memory References
system.cpu_clk_domain.clock                      1000                       # Clock period in ticks
system.cpu_voltage_domain.voltage                   1                       # Voltage in Volts
system.l2.demand_hits::.cpu.inst             11133908                       # number of demand (read+write) hits
system.l2.demand_hits::.cpu.data               233259                       # number of demand (read+write) hits
system.l2.demand_hits::total                 11367167                       # number of demand (read+write) hits
system.l2.overall_hits::.cpu.inst            11133908                       # number of overall hits
system.l2.overall_hits::.cpu.data              233259                       # number of overall hits
system.l2.overall_hits::total                11367167                       # number of overall hits
system.l2.demand_misses::.cpu.inst               1124                       # number of demand (read+write) misses
system.l2.demand_misses::.cpu.data               4480                       # number of demand (read+write) misses
system.l2.demand_misses::total                   5604                       # number of demand (read+write) misses
system.l2.overall_misses::.cpu.inst              1124                       # number of overall misses
system.l2.overall_misses::.cpu.data              4480                       # number of overall misses
system.l2.overall_misses::total                  5604                       # number of overall misses
system.l2.demand_miss_latency::.cpu.inst    109466000                       # number of demand (read+write) miss cycles
system.l2.demand_miss_latency::.cpu.data    441382000                       # number of demand (read+write) miss cycles
system.l2.demand_miss_latency::total        550848000                       # number of demand (read+write) miss cycles
system.l2.overall_miss_latency::.cpu.inst    109466000                       # number of overall miss cycles
system.l2.overall_miss_latency::.cpu.data    441382000                       # number of overall miss cycles
system.l2.overall_miss_latency::total       550848000                       # number of overall miss cycles
system.l2.demand_accesses::.cpu.inst         11135032                       # number of demand (read+write) accesses
system.l2.demand_accesses::.cpu.data           237739                       # number of demand (read+write) accesses
system.l2.demand_accesses::total             11372771                       # number of demand (read+write) accesses
system.l2.overall_accesses::.cpu.inst        11135032                       # number of overall (read+write) accesses
system.l2.overall_accesses::.cpu.data          237739                       # number of overall (read+write) accesses
system.l2.overall_accesses::total            11372771                       # number of overall (read+write) accesses
system.l2.demand_miss_rate::.cpu.inst        0.000101                       # miss rate for demand accesses
system.l2.demand_miss_rate::.cpu.data        0.018844                       # miss rate for demand accesses
system.l2.demand_miss_rate::total            0.000493                       # miss rate for demand accesses
system.l2.overall_miss_rate::.cpu.inst       0.000101                       # miss rate for overall accesses
system.l2.overall_miss_rate::.cpu.data       0.018844                       # miss rate for overall accesses
system.l2.overall_miss_rate::total           0.000493                       # miss rate for overall accesses
system.l2.demand_avg_miss_latency::.cpu.inst 97389.679715                       # average overall miss latency
system.l2.demand_avg_miss_latency::.cpu.data 98522.767857                       # average overall miss latency
system.l2.demand_avg_miss_latency::total 98295.503212                       # average overall miss latency
system.l2.overall_avg_miss_latency::.cpu.inst 97389.679715                       # average overall miss latency
system.l2.overall_avg_miss_latency::.cpu.data 98522.767857                       # average overall miss latency
system.l2.overall_avg_miss_latency::total 98295.503212                       # average overall miss latency
system.l2.blocked_cycles::no_mshrs                  0                       # number of cycles access was blocked
system.l2.blocked_cycles::no_targets                0                       # number of cycles access was blocked
system.l2.blocked::no_mshrs                         0                       # number of cycles access was blocked
system.l2.blocked::no_targets                       0                       # number of cycles access was blocked
system.l2.avg_blocked_cycles::no_mshrs            nan                       # average number of cycles each access was blocked
system.l2.avg_blocked_cycles::no_targets          nan                       # average number of cycles each access was blocked
system.l2.demand_mshr_hits::.cpu.inst               1                       # number of demand (read+write) MSHR hits
system.l2.demand_mshr_hits::.cpu.data               6                       # number of demand (read+write) MSHR hits
system.l2.demand_mshr_hits::total                   7                       # number of demand (read+write) MSHR hits
system.l2.overall_mshr_hits::.cpu.inst              1                       # number of overall MSHR hits
system.l2.overall_mshr_hits::.cpu.data              6                       # number of overall MSHR hits
system.l2.overall_mshr_hits::total                  7                       # number of overall MSHR hits
system.l2.demand_mshr_misses::.cpu.inst          1123                       # number of demand (read+write) MSHR misses
system.l2.demand_mshr_misses::.cpu.data          4474                       # number of demand (read+write) MSHR misses
system.l2.demand_mshr_misses::total              5597                       # number of demand (read+write) MSHR misses
system.l2.overall_mshr_misses::.cpu.inst         1123                       # number of overall MSHR misses
system.l2.overall_mshr_misses::.cpu.data         4474                       # number of overall MSHR misses
system.l2.overall_mshr_misses::total             5597                       # number of overall MSHR misses
system.l2.demand_mshr_miss_latency::.cpu.inst     86981000                       # number of demand (read+write) MSHR miss cycles
system.l2.demand_mshr_miss_latency::.cpu.data    351373000                       # number of demand (read+write) MSHR miss cycles
system.l2.demand_mshr_miss_latency::total    438354000                       # number of demand (read+write) MSHR miss cycles
system.l2.overall_mshr_miss_latency::.cpu.inst     86981000                       # number of overall MSHR miss cycles
system.l2.overall_mshr_miss_latency::.cpu.data    351373000                       # number of overall MSHR miss cycles
system.l2.overall_mshr_miss_latency::total    438354000                       # number of overall MSHR miss cycles
system.l2.demand_mshr_miss_rate::.cpu.inst     0.000101                       # mshr miss rate for demand accesses
system.l2.demand_mshr_miss_rate::.cpu.data     0.018819                       # mshr miss rate for demand accesses
system.l2.demand_mshr_miss_rate::total       0.000492                       # mshr miss rate for demand accesses
system.l2.overall_mshr_miss_rate::.cpu.inst     0.000101                       # mshr miss rate for overall accesses
system.l2.overall_mshr_miss_rate::.cpu.data     0.018819                       # mshr miss rate for overall accesses
system.l2.overall_mshr_miss_rate::total      0.000492                       # mshr miss rate for overall accesses
system.l2.demand_avg_mshr_miss_latency::.cpu.inst 77454.140695                       # average overall mshr miss latency
system.l2.demand_avg_mshr_miss_latency::.cpu.data 78536.656236                       # average overall mshr miss latency
system.l2.demand_avg_mshr_miss_latency::total 78319.456852                       # average overall mshr miss latency
system.l2.overall_avg_mshr_miss_latency::.cpu.inst 77454.140695                       # average overall mshr miss latency
system.l2.overall_avg_mshr_miss_latency::.cpu.data 78536.656236                       # average overall mshr miss latency
system.l2.overall_avg_mshr_miss_latency::total 78319.456852                       # average overall mshr miss latency
system.l2.replacements                             12                       # number of replacements
system.l2.WritebackDirty_hits::.writebacks       232296                       # number of WritebackDirty hits
system.l2.WritebackDirty_hits::total           232296                       # number of WritebackDirty hits
system.l2.WritebackDirty_accesses::.writebacks       232296                       # number of WritebackDirty accesses(hits+misses)
system.l2.WritebackDirty_accesses::total       232296                       # number of WritebackDirty accesses(hits+misses)
system.l2.WritebackClean_hits::.writebacks      9859563                       # number of WritebackClean hits
system.l2.WritebackClean_hits::total          9859563                       # number of WritebackClean hits
system.l2.WritebackClean_accesses::.writebacks      9859563                       # number of WritebackClean accesses(hits+misses)
system.l2.WritebackClean_accesses::total      9859563                       # number of WritebackClean accesses(hits+misses)
system.l2.ReadExReq_hits::.cpu.data            183592                       # number of ReadExReq hits
system.l2.ReadExReq_hits::total                183592                       # number of ReadExReq hits
system.l2.ReadExReq_misses::.cpu.data            3681                       # number of ReadExReq misses
system.l2.ReadExReq_misses::total                3681                       # number of ReadExReq misses
system.l2.ReadExReq_miss_latency::.cpu.data    358644000                       # number of ReadExReq miss cycles
system.l2.ReadExReq_miss_latency::total     358644000                       # number of ReadExReq miss cycles
system.l2.ReadExReq_accesses::.cpu.data        187273                       # number of ReadExReq accesses(hits+misses)
system.l2.ReadExReq_accesses::total            187273                       # number of ReadExReq accesses(hits+misses)
system.l2.ReadExReq_miss_rate::.cpu.data     0.019656                       # miss rate for ReadExReq accesses
system.l2.ReadExReq_miss_rate::total         0.019656                       # miss rate for ReadExReq accesses
system.l2.ReadExReq_avg_miss_latency::.cpu.data 97431.132844                       # average ReadExReq miss latency
system.l2.ReadExReq_avg_miss_latency::total 97431.132844                       # average ReadExReq miss latency
system.l2.ReadExReq_mshr_misses::.cpu.data         3681                       # number of ReadExReq MSHR misses
system.l2.ReadExReq_mshr_misses::total           3681                       # number of ReadExReq MSHR misses
system.l2.ReadExReq_mshr_miss_latency::.cpu.data    285024000                       # number of ReadExReq MSHR miss cycles
system.l2.ReadExReq_mshr_miss_latency::total    285024000                       # number of ReadExReq MSHR miss cycles
system.l2.ReadExReq_mshr_miss_rate::.cpu.data     0.019656                       # mshr miss rate for ReadExReq accesses
system.l2.ReadExReq_mshr_miss_rate::total     0.019656                       # mshr miss rate for ReadExReq accesses
system.l2.ReadExReq_avg_mshr_miss_latency::.cpu.data 77431.132844                       # average ReadExReq mshr miss latency
system.l2.ReadExReq_avg_mshr_miss_latency::total 77431.132844                       # average ReadExReq mshr miss latency
system.l2.ReadCleanReq_hits::.cpu.inst       11133908                       # number of ReadCleanReq hits
system.l2.ReadCleanReq_hits::total           11133908                       # number of ReadCleanReq hits
system.l2.ReadCleanReq_misses::.cpu.inst         1124                       # number of ReadCleanReq misses
system.l2.ReadCleanReq_misses::total             1124                       # number of ReadCleanReq misses
system.l2.ReadCleanReq_miss_latency::.cpu.inst    109466000                       # number of ReadCleanReq miss cycles
system.l2.ReadCleanReq_miss_latency::total    109466000                       # number of ReadCleanReq miss cycles
system.l2.ReadCleanReq_accesses::.cpu.inst     11135032                       # number of ReadCleanReq accesses(hits+misses)
system.l2.ReadCleanReq_accesses::total       11135032                       # number of ReadCleanReq accesses(hits+misses)
system.l2.ReadCleanReq_miss_rate::.cpu.inst     0.000101                       # miss rate for ReadCleanReq accesses
system.l2.ReadCleanReq_miss_rate::total      0.000101                       # miss rate for ReadCleanReq accesses
system.l2.ReadCleanReq_avg_miss_latency::.cpu.inst 97389.679715                       # average ReadCleanReq miss latency
system.l2.ReadCleanReq_avg_miss_latency::total 97389.679715                       # average ReadCleanReq miss latency
system.l2.ReadCleanReq_mshr_hits::.cpu.inst            1                       # number of ReadCleanReq MSHR hits
system.l2.ReadCleanReq_mshr_hits::total             1                       # number of ReadCleanReq MSHR hits
system.l2.ReadCleanReq_mshr_misses::.cpu.inst         1123                       # number of ReadCleanReq MSHR misses
system.l2.ReadCleanReq_mshr_misses::total         1123                       # number of ReadCleanReq MSHR misses
system.l2.ReadCleanReq_mshr_miss_latency::.cpu.inst     86981000                       # number of ReadCleanReq MSHR miss cycles
system.l2.ReadCleanReq_mshr_miss_latency::total     86981000                       # number of ReadCleanReq MSHR miss cycles
system.l2.ReadCleanReq_mshr_miss_rate::.cpu.inst     0.000101                       # mshr miss rate for ReadCleanReq accesses
system.l2.ReadCleanReq_mshr_miss_rate::total     0.000101                       # mshr miss rate for ReadCleanReq accesses
system.l2.ReadCleanReq_avg_mshr_miss_latency::.cpu.inst 77454.140695                       # average ReadCleanReq mshr miss latency
system.l2.ReadCleanReq_avg_mshr_miss_latency::total 77454.140695                       # average ReadCleanReq mshr miss latency
system.l2.ReadSharedReq_hits::.cpu.data         49667                       # number of ReadSharedReq hits
system.l2.ReadSharedReq_hits::total             49667                       # number of ReadSharedReq hits
system.l2.ReadSharedReq_misses::.cpu.data          799                       # number of ReadSharedReq misses
system.l2.ReadSharedReq_misses::total             799                       # number of ReadSharedReq misses
system.l2.ReadSharedReq_miss_latency::.cpu.data     82738000                       # number of ReadSharedReq miss cycles
system.l2.ReadSharedReq_miss_latency::total     82738000                       # number of ReadSharedReq miss cycles
system.l2.ReadSharedReq_accesses::.cpu.data        50466                       # number of ReadSharedReq accesses(hits+misses)
system.l2.ReadSharedReq_accesses::total         50466                       # number of ReadSharedReq accesses(hits+misses)
system.l2.ReadSharedReq_miss_rate::.cpu.data     0.015832                       # miss rate for ReadSharedReq accesses
system.l2.ReadSharedReq_miss_rate::total     0.015832                       # miss rate for ReadSharedReq accesses
system.l2.ReadSharedReq_avg_miss_latency::.cpu.data 103551.939925                       # average ReadSharedReq miss latency
system.l2.ReadSharedReq_avg_miss_latency::total 103551.939925                       # average ReadSharedReq miss latency
system.l2.ReadSharedReq_mshr_hits::.cpu.data            6                       # number of ReadSharedReq MSHR hits
system.l2.ReadSharedReq_mshr_hits::total            6                       # number of ReadSharedReq MSHR hits
system.l2.ReadSharedReq_mshr_misses::.cpu.data          793                       # number of ReadSharedReq MSHR misses
system.l2.ReadSharedReq_mshr_misses::total          793                       # number of ReadSharedReq MSHR misses
system.l2.ReadSharedReq_mshr_miss_latency::.cpu.data     66349000                       # number of ReadSharedReq MSHR miss cycles
system.l2.ReadSharedReq_mshr_miss_latency::total     66349000                       # number of ReadSharedReq MSHR miss cycles
system.l2.ReadSharedReq_mshr_miss_rate::.cpu.data     0.015714                       # mshr miss rate for ReadSharedReq accesses
system.l2.ReadSharedReq_mshr_miss_rate::total     0.015714                       # mshr miss rate for ReadSharedReq accesses
system.l2.ReadSharedReq_avg_mshr_miss_latency::.cpu.data 83668.348045                       # average ReadSharedReq mshr miss latency
system.l2.ReadSharedReq_avg_mshr_miss_latency::total 83668.348045                       # average ReadSharedReq mshr miss latency
system.l2.power_state.pwrStateResidencyTicks::UNDEFINED 462631705000                       # Cumulative time (in ticks) in various power states
system.l2.tags.tagsinuse                  5483.618588                       # Cycle average of tags in use
system.l2.tags.total_refs                    21469554                       # Total number of references to valid blocks.
system.l2.tags.sampled_refs                      5597                       # Sample count of references to valid blocks.
system.l2.tags.avg_refs                   3835.903877                       # Average number of references to valid blocks.
system.l2.tags.warmup_cycle                     87000                       # Cycle when the warmup percentage was hit.
system.l2.tags.occ_blocks::.cpu.inst      1109.460885                       # Average occupied blocks per requestor
system.l2.tags.occ_blocks::.cpu.data      4374.157703                       # Average occupied blocks per requestor
system.l2.tags.occ_percent::.cpu.inst        0.135432                       # Average percentage of cache occupancy
system.l2.tags.occ_percent::.cpu.data        0.533955                       # Average percentage of cache occupancy
system.l2.tags.occ_percent::total            0.669387                       # Average percentage of cache occupancy
system.l2.tags.occ_task_id_blocks::1024          5585                       # Occupied blocks per task id
system.l2.tags.age_task_id_blocks_1024::4         5585                       # Occupied blocks per task id
system.l2.tags.occ_task_id_percent::1024     0.681763                       # Percentage of cache occupancy per task id
system.l2.tags.tag_accesses                 171762085                       # Number of tag accesses
system.l2.tags.data_accesses                171762085                       # Number of data accesses
system.l2.tags.power_state.pwrStateResidencyTicks::UNDEFINED 462631705000                       # Cumulative time (in ticks) in various power states
system.mem_ctrls.avgPriority_.cpu.inst::samples      1123.00                       # Average QoS priority value for accepted requests
system.mem_ctrls.avgPriority_.cpu.data::samples      4474.00                       # Average QoS priority value for accepted requests
system.mem_ctrls.priorityMinLatency      0.000000018750                       # per QoS priority minimum request to response latency (s)
system.mem_ctrls.priorityMaxLatency      0.000000579500                       # per QoS priority maximum request to response latency (s)
system.mem_ctrls.numReadWriteTurnArounds            0                       # Number of turnarounds from READ to WRITE
system.mem_ctrls.numWriteReadTurnArounds            0                       # Number of turnarounds from WRITE to READ
system.mem_ctrls.numStayReadState              130021                       # Number of times bus staying in READ state
system.mem_ctrls.numStayWriteState                  0                       # Number of times bus staying in WRITE state
system.mem_ctrls.readReqs                        5597                       # Number of read requests accepted
system.mem_ctrls.writeReqs                          0                       # Number of write requests accepted
system.mem_ctrls.readBursts                      5597                       # Number of controller read bursts, including those serviced by the write queue
system.mem_ctrls.writeBursts                        0                       # Number of controller write bursts, including those merged in the write queue
system.mem_ctrls.servicedByWrQ                      0                       # Number of controller read bursts serviced by the write queue
system.mem_ctrls.mergedWrBursts                     0                       # Number of controller write bursts merged with an existing one
system.mem_ctrls.neitherReadNorWriteReqs            0                       # Number of requests that are neither read nor write
system.mem_ctrls.avgRdQLen                       1.00                       # Average read queue length when enqueuing
system.mem_ctrls.avgWrQLen                       0.00                       # Average write queue length when enqueuing
system.mem_ctrls.numRdRetry                         0                       # Number of times read queue was full causing retry
system.mem_ctrls.numWrRetry                         0                       # Number of times write queue was full causing retry
system.mem_ctrls.readPktSize::0                     0                       # Read request sizes (log2)
system.mem_ctrls.readPktSize::1                     0                       # Read request sizes (log2)
system.mem_ctrls.readPktSize::2                     0                       # Read request sizes (log2)
system.mem_ctrls.readPktSize::3                     0                       # Read request sizes (log2)
system.mem_ctrls.readPktSize::4                     0                       # Read request sizes (log2)
system.mem_ctrls.readPktSize::5                     0                       # Read request sizes (log2)
system.mem_ctrls.readPktSize::6                  5597                       # Read request sizes (log2)
system.mem_ctrls.writePktSize::0                    0                       # Write request sizes (log2)
system.mem_ctrls.writePktSize::1                    0                       # Write request sizes (log2)
system.mem_ctrls.writePktSize::2                    0                       # Write request sizes (log2)
system.mem_ctrls.writePktSize::3                    0                       # Write request sizes (log2)
system.mem_ctrls.writePktSize::4                    0                       # Write request sizes (log2)
system.mem_ctrls.writePktSize::5                    0                       # Write request sizes (log2)
system.mem_ctrls.writePktSize::6                    0                       # Write request sizes (log2)
system.mem_ctrls.rdQLenPdf::0                    5203                       # What read queue length does an incoming req see
system.mem_ctrls.rdQLenPdf::1                     374                       # What read queue length does an incoming req see
system.mem_ctrls.rdQLenPdf::2                      20                       # What read queue length does an incoming req see
system.mem_ctrls.rdQLenPdf::3                       0                       # What read queue length does an incoming req see
system.mem_ctrls.rdQLenPdf::4                       0                       # What read queue length does an incoming req see
system.mem_ctrls.rdQLenPdf::5                       0                       # What read queue length does an incoming req see
system.mem_ctrls.rdQLenPdf::6                       0                       # What read queue length does an incoming req see
system.mem_ctrls.rdQLenPdf::7                       0                       # What read queue length does an incoming req see
system.mem_ctrls.rdQLenPdf::8                       0                       # What read queue length does an incoming req see
system.mem_ctrls.rdQLenPdf::9                       0                       # What read queue length does an incoming req see
system.mem_ctrls.rdQLenPdf::10                      0                       # What read queue length does an incoming req see
system.mem_ctrls.rdQLenPdf::11                      0                       # What read queue length does an incoming req see
system.mem_ctrls.rdQLenPdf::12                      0                       # What read queue length does an incoming req see
system.mem_ctrls.rdQLenPdf::13                      0                       # What read queue length does an incoming req see
system.mem_ctrls.rdQLenPdf::14                      0                       # What read queue length does an incoming req see
system.mem_ctrls.rdQLenPdf::15                      0                       # What read queue length does an incoming req see
[...]
system.mem_ctrls.dram.bw_read::total           774283                       # Total read bandwidth from this memory (bytes/s)
system.mem_ctrls.dram.bw_inst_read::.cpu.inst       155355                       # Instruction read bandwidth from this memory (bytes/s)
system.mem_ctrls.dram.bw_inst_read::total       155355                       # Instruction read bandwidth from this memory (bytes/s)
system.mem_ctrls.dram.bw_total::.cpu.inst       155355                       # Total bandwidth to/from this memory (bytes/s)
system.mem_ctrls.dram.bw_total::.cpu.data       618929                       # Total bandwidth to/from this memory (bytes/s)
system.mem_ctrls.dram.bw_total::total          774283                       # Total bandwidth to/from this memory (bytes/s)
system.mem_ctrls.dram.readBursts                 5597                       # Number of DRAM read bursts
system.mem_ctrls.dram.writeBursts                   0                       # Number of DRAM write bursts
system.mem_ctrls.dram.perBankRdBursts::0          413                       # Per bank write bursts
system.mem_ctrls.dram.perBankRdBursts::1          395                       # Per bank write bursts
system.mem_ctrls.dram.perBankRdBursts::2          363                       # Per bank write bursts
system.mem_ctrls.dram.perBankRdBursts::3          333                       # Per bank write bursts
system.mem_ctrls.dram.perBankRdBursts::4          346                       # Per bank write bursts
system.mem_ctrls.dram.perBankRdBursts::5          299                       # Per bank write bursts
system.mem_ctrls.dram.perBankRdBursts::6          370                       # Per bank write bursts
system.mem_ctrls.dram.perBankRdBursts::7          368                       # Per bank write bursts
system.mem_ctrls.dram.perBankRdBursts::8          223                       # Per bank write bursts
system.mem_ctrls.dram.perBankRdBursts::9          329                       # Per bank write bursts
system.mem_ctrls.dram.perBankRdBursts::10          294                       # Per bank write bursts
system.mem_ctrls.dram.perBankRdBursts::11          344                       # Per bank write bursts
system.mem_ctrls.dram.perBankRdBursts::12          362                       # Per bank write bursts
system.mem_ctrls.dram.perBankRdBursts::13          403                       # Per bank write bursts
system.mem_ctrls.dram.perBankRdBursts::14          422                       # Per bank write bursts
system.mem_ctrls.dram.perBankRdBursts::15          333                       # Per bank write bursts
system.mem_ctrls.dram.perBankWrBursts::0            0                       # Per bank write bursts
system.mem_ctrls.dram.perBankWrBursts::1            0                       # Per bank write bursts
system.mem_ctrls.dram.perBankWrBursts::2            0                       # Per bank write bursts
system.mem_ctrls.dram.perBankWrBursts::3            0                       # Per bank write bursts
system.mem_ctrls.dram.perBankWrBursts::4            0                       # Per bank write bursts
system.mem_ctrls.dram.perBankWrBursts::5            0                       # Per bank write bursts
system.mem_ctrls.dram.perBankWrBursts::6            0                       # Per bank write bursts
system.mem_ctrls.dram.perBankWrBursts::7            0                       # Per bank write bursts
system.mem_ctrls.dram.perBankWrBursts::8            0                       # Per bank write bursts
system.mem_ctrls.dram.perBankWrBursts::9            0                       # Per bank write bursts
system.mem_ctrls.dram.perBankWrBursts::10            0                       # Per bank write bursts
system.mem_ctrls.dram.perBankWrBursts::11            0                       # Per bank write bursts
system.mem_ctrls.dram.perBankWrBursts::12            0                       # Per bank write bursts
system.mem_ctrls.dram.perBankWrBursts::13            0                       # Per bank write bursts
system.mem_ctrls.dram.perBankWrBursts::14            0                       # Per bank write bursts
system.mem_ctrls.dram.perBankWrBursts::15            0                       # Per bank write bursts
system.mem_ctrls.dram.totQLat                46159500                       # Total ticks spent queuing
system.mem_ctrls.dram.totBusLat              27985000                       # Total ticks spent in databus transfers
system.mem_ctrls.dram.totMemAccLat          151103250                       # Total ticks spent from burst creation until serviced by the DRAM
system.mem_ctrls.dram.avgQLat                 8247.19                       # Average queueing delay per DRAM burst
system.mem_ctrls.dram.avgBusLat               5000.00                       # Average bus latency per DRAM burst
system.mem_ctrls.dram.avgMemAccLat           26997.19                       # Average memory access latency per DRAM burst
system.mem_ctrls.dram.readRowHits                4066                       # Number of row buffer hits during reads
system.mem_ctrls.dram.writeRowHits                  0                       # Number of row buffer hits during writes
system.mem_ctrls.dram.readRowHitRate            72.65                       # Row buffer hit rate for reads
system.mem_ctrls.dram.writeRowHitRate             nan                       # Row buffer hit rate for writes
system.mem_ctrls.dram.bytesPerActivate::samples         1531                       # Bytes accessed per row activation
system.mem_ctrls.dram.bytesPerActivate::mean   233.969954                       # Bytes accessed per row activation
system.mem_ctrls.dram.bytesPerActivate::gmean   153.923903                       # Bytes accessed per row activation
system.mem_ctrls.dram.bytesPerActivate::stdev   258.132796                       # Bytes accessed per row activation
system.mem_ctrls.dram.bytesPerActivate::0-127          563     36.77%     36.77% # Bytes accessed per row activation
system.mem_ctrls.dram.bytesPerActivate::128-255          463     30.24%     67.02% # Bytes accessed per row activation
system.mem_ctrls.dram.bytesPerActivate::256-383          289     18.88%     85.89% # Bytes accessed per row activation
system.mem_ctrls.dram.bytesPerActivate::384-511           56      3.66%     89.55% # Bytes accessed per row activation
system.mem_ctrls.dram.bytesPerActivate::512-639           15      0.98%     90.53% # Bytes accessed per row activation
system.mem_ctrls.dram.bytesPerActivate::640-767           17      1.11%     91.64% # Bytes accessed per row activation
system.mem_ctrls.dram.bytesPerActivate::768-895           13      0.85%     92.49% # Bytes accessed per row activation
system.mem_ctrls.dram.bytesPerActivate::896-1023           11      0.72%     93.21% # Bytes accessed per row activation
system.mem_ctrls.dram.bytesPerActivate::1024-1151          104      6.79%    100.00% # Bytes accessed per row activation
system.mem_ctrls.dram.bytesPerActivate::total         1531                       # Bytes accessed per row activation
system.mem_ctrls.dram.bytesRead                358208                       # Total number of bytes read from DRAM
system.mem_ctrls.dram.bytesWritten                  0                       # Total number of bytes written to DRAM
system.mem_ctrls.dram.avgRdBW                0.774283                       # Average DRAM read bandwidth in MiBytes/s
system.mem_ctrls.dram.avgWrBW                       0                       # Average DRAM write bandwidth in MiBytes/s
system.mem_ctrls.dram.peakBW                 12800.00                       # Theoretical peak bandwidth in MiByte/s
system.mem_ctrls.dram.busUtil                    0.01                       # Data bus utilization in percentage
system.mem_ctrls.dram.busUtilRead                0.01                       # Data bus utilization in percentage for reads
system.mem_ctrls.dram.busUtilWrite               0.00                       # Data bus utilization in percentage for writes
system.mem_ctrls.dram.pageHitRate               72.65                       # Row buffer hit rate, read and write combined
system.mem_ctrls.dram.power_state.pwrStateResidencyTicks::UNDEFINED 462631705000                       # Cumulative time (in ticks) in various power states
system.mem_ctrls.dram.rank0.actEnergy         5926200                       # Energy for activate commands per rank (pJ)
system.mem_ctrls.dram.rank0.preEnergy         3149850                       # Energy for precharge commands per rank (pJ)
system.mem_ctrls.dram.rank0.readEnergy       20613180                       # Energy for read commands per rank (pJ)
system.mem_ctrls.dram.rank0.writeEnergy             0                       # Energy for write commands per rank (pJ)
system.mem_ctrls.dram.rank0.refreshEnergy 36519450240.000008                       # Energy for refresh commands per rank (pJ)
system.mem_ctrls.dram.rank0.actBackEnergy   7834035540                       # Energy for active background per rank (pJ)
system.mem_ctrls.dram.rank0.preBackEnergy 171053492160                       # Energy for precharge background per rank (pJ)
system.mem_ctrls.dram.rank0.actPowerDownEnergy            0                       # Energy for active power-down per rank (pJ)
system.mem_ctrls.dram.rank0.prePowerDownEnergy            0                       # Energy for precharge power-down per rank (pJ)
system.mem_ctrls.dram.rank0.selfRefreshEnergy            0                       # Energy for self refresh per rank (pJ)
system.mem_ctrls.dram.rank0.totalEnergy  215436667170                       # Total energy per rank (pJ)
system.mem_ctrls.dram.rank0.averagePower   465.676401                       # Core power per rank (mW)
system.mem_ctrls.dram.rank0.totalIdleTime            0                       # Total Idle time Per DRAM Rank
system.mem_ctrls.dram.rank0.pwrStateTime::IDLE 444627756000                       # Time in different power states
system.mem_ctrls.dram.rank0.pwrStateTime::REF  15448160000                       # Time in different power states
system.mem_ctrls.dram.rank0.pwrStateTime::SREF            0                       # Time in different power states
system.mem_ctrls.dram.rank0.pwrStateTime::PRE_PDN            0                       # Time in different power states
system.mem_ctrls.dram.rank0.pwrStateTime::ACT   2555789000                       # Time in different power states
system.mem_ctrls.dram.rank0.pwrStateTime::ACT_PDN            0                       # Time in different power states
system.mem_ctrls.dram.rank1.actEnergy         5005140                       # Energy for activate commands per rank (pJ)
system.mem_ctrls.dram.rank1.preEnergy         2660295                       # Energy for precharge commands per rank (pJ)
system.mem_ctrls.dram.rank1.readEnergy       19349400                       # Energy for read commands per rank (pJ)
system.mem_ctrls.dram.rank1.writeEnergy             0                       # Energy for write commands per rank (pJ)
system.mem_ctrls.dram.rank1.refreshEnergy 36519450240.000008                       # Energy for refresh commands per rank (pJ)
system.mem_ctrls.dram.rank1.actBackEnergy   7711028400                       # Energy for active background per rank (pJ)
system.mem_ctrls.dram.rank1.preBackEnergy 171157077120                       # Energy for precharge background per rank (pJ)
system.mem_ctrls.dram.rank1.actPowerDownEnergy            0                       # Energy for active power-down per rank (pJ)
system.mem_ctrls.dram.rank1.prePowerDownEnergy            0                       # Energy for precharge power-down per rank (pJ)
system.mem_ctrls.dram.rank1.selfRefreshEnergy            0                       # Energy for self refresh per rank (pJ)
system.mem_ctrls.dram.rank1.totalEnergy  215414570595                       # Total energy per rank (pJ)
system.mem_ctrls.dram.rank1.averagePower   465.628638                       # Core power per rank (mW)
system.mem_ctrls.dram.rank1.totalIdleTime            0                       # Total Idle time Per DRAM Rank
system.mem_ctrls.dram.rank1.pwrStateTime::IDLE 444898093000                       # Time in different power states
system.mem_ctrls.dram.rank1.pwrStateTime::REF  15448160000                       # Time in different power states
system.mem_ctrls.dram.rank1.pwrStateTime::SREF            0                       # Time in different power states
system.mem_ctrls.dram.rank1.pwrStateTime::PRE_PDN            0                       # Time in different power states
system.mem_ctrls.dram.rank1.pwrStateTime::ACT   2285452000                       # Time in different power states
system.mem_ctrls.dram.rank1.pwrStateTime::ACT_PDN            0                       # Time in different power states
system.mem_ctrls.power_state.pwrStateResidencyTicks::UNDEFINED 462631705000                       # Cumulative time (in ticks) in various power states
system.membus.trans_dist::ReadResp               1916                       # Transaction distribution
system.membus.trans_dist::CleanEvict               12                       # Transaction distribution
system.membus.trans_dist::ReadExReq              3681                       # Transaction distribution
system.membus.trans_dist::ReadExResp             3681                       # Transaction distribution
system.membus.trans_dist::ReadSharedReq          1916                       # Transaction distribution
system.membus.pkt_count_system.l2.mem_side_port::system.mem_ctrls.port        11206                       # Packet count per connected requestor and responder (bytes)
system.membus.pkt_count::total                  11206                       # Packet count per connected requestor and responder (bytes)
system.membus.pkt_size_system.l2.mem_side_port::system.mem_ctrls.port       358208                       # Cumulative packet size per connected requestor and responder (bytes)
system.membus.pkt_size::total                  358208                       # Cumulative packet size per connected requestor and responder (bytes)
system.membus.snoops                                0                       # Total snoops (count)
system.membus.snoopTraffic                          0                       # Total snoop traffic (bytes)
system.membus.snoop_fanout::samples              5597                       # Request fanout histogram
system.membus.snoop_fanout::mean                    0                       # Request fanout histogram
system.membus.snoop_fanout::stdev                   0                       # Request fanout histogram
system.membus.snoop_fanout::underflows              0      0.00%      0.00% # Request fanout histogram
system.membus.snoop_fanout::0                    5597    100.00%    100.00% # Request fanout histogram
system.membus.snoop_fanout::1                       0      0.00%    100.00% # Request fanout histogram
system.membus.snoop_fanout::overflows               0      0.00%    100.00% # Request fanout histogram
system.membus.snoop_fanout::min_value               0                       # Request fanout histogram
system.membus.snoop_fanout::max_value               0                       # Request fanout histogram
system.membus.snoop_fanout::total                5597                       # Request fanout histogram
system.membus.power_state.pwrStateResidencyTicks::UNDEFINED 462631705000                       # Cumulative time (in ticks) in various power states
system.membus.reqLayer0.occupancy             5609000                       # Layer occupancy (ticks)
system.membus.reqLayer0.utilization               0.0                       # Layer utilization (%)
system.membus.respLayer1.occupancy           29719250                       # Layer occupancy (ticks)
system.membus.respLayer1.utilization              0.0                       # Layer utilization (%)
system.tol2bus.trans_dist::ReadResp          11185498                       # Transaction distribution
system.tol2bus.trans_dist::WritebackDirty       232296                       # Transaction distribution
system.tol2bus.trans_dist::WritebackClean     11135029                       # Transaction distribution
system.tol2bus.trans_dist::CleanEvict            4943                       # Transaction distribution
system.tol2bus.trans_dist::ReadExReq           187273                       # Transaction distribution
system.tol2bus.trans_dist::ReadExResp          187273                       # Transaction distribution
system.tol2bus.trans_dist::ReadCleanReq      11135032                       # Transaction distribution
system.tol2bus.trans_dist::ReadSharedReq        50466                       # Transaction distribution
system.tol2bus.pkt_count_system.cpu.icache.mem_side_port::system.l2.cpu_side_port     33405093                       # Packet count per connected requestor and responder (bytes)
system.tol2bus.pkt_count_system.cpu.dcache.mem_side_port::system.l2.cpu_side_port       712705                       # Packet count per connected requestor and responder (bytes)
system.tol2bus.pkt_count::total              34117798                       # Packet count per connected requestor and responder (bytes)
system.tol2bus.pkt_size_system.cpu.icache.mem_side_port::system.l2.cpu_side_port   1425283904                       # Cumulative packet size per connected requestor and responder (bytes)
system.tol2bus.pkt_size_system.cpu.dcache.mem_side_port::system.l2.cpu_side_port     30082240                       # Cumulative packet size per connected requestor and responder (bytes)
system.tol2bus.pkt_size::total             1455366144                       # Cumulative packet size per connected requestor and responder (bytes)
system.tol2bus.snoops                              12                       # Total snoops (count)
system.tol2bus.snoopTraffic                         0                       # Total snoop traffic (bytes)
system.tol2bus.snoop_fanout::samples         11372783                       # Request fanout histogram
system.tol2bus.snoop_fanout::mean            0.112151                       # Request fanout histogram
system.tol2bus.snoop_fanout::stdev           0.315552                       # Request fanout histogram
system.tol2bus.snoop_fanout::underflows             0      0.00%      0.00% # Request fanout histogram
system.tol2bus.snoop_fanout::0               10097317     88.78%     88.78% # Request fanout histogram
system.tol2bus.snoop_fanout::1                1275466     11.22%    100.00% # Request fanout histogram
system.tol2bus.snoop_fanout::2                      0      0.00%    100.00% # Request fanout histogram
system.tol2bus.snoop_fanout::overflows              0      0.00%    100.00% # Request fanout histogram
system.tol2bus.snoop_fanout::min_value              0                       # Request fanout histogram
system.tol2bus.snoop_fanout::max_value              1                       # Request fanout histogram
system.tol2bus.snoop_fanout::total           11372783                       # Request fanout histogram
system.tol2bus.power_state.pwrStateResidencyTicks::UNDEFINED 462631705000                       # Cumulative time (in ticks) in various power states
system.tol2bus.reqLayer0.occupancy        45479677000                       # Layer occupancy (ticks)
system.tol2bus.reqLayer0.utilization              9.8                       # Layer utilization (%)
system.tol2bus.respLayer0.occupancy       33405096999                       # Layer occupancy (ticks)
system.tol2bus.respLayer0.utilization             7.2                       # Layer utilization (%)
system.tol2bus.respLayer1.occupancy         713230986                       # Layer occupancy (ticks)
system.tol2bus.respLayer1.utilization             0.2                       # Layer utilization (%)
system.voltage_domain.voltage                       1                       # Voltage in Volts

---------- End Simulation Statistics   ----------
