
---------- Begin Simulation Statistics ----------
final_tick                                   38836000                       # Number of ticks from beginning of simulation (restored from checkpoints and never reset)
host_inst_rate                                 102405                       # Simulator instruction rate (inst/s)
host_mem_usage                                 653396                       # Number of bytes of host memory used
host_op_rate                                   118564                       # Simulator op (including micro ops) rate (op/s)
host_seconds                                     0.11                       # Real time elapsed on the host
host_tick_rate                              352801699                       # Simulator tick rate (ticks/s)
sim_freq                                 1000000000000                       # Frequency of simulated ticks
sim_insts                                       11259                       # Number of instructions simulated
sim_ops                                         13049                       # Number of ops (including micro ops) simulated
sim_seconds                                  0.000039                       # Number of seconds simulated
sim_ticks                                    38836000                       # Number of ticks simulated
system.cpu.committedInsts                       11259                       # Number of instructions committed
system.cpu.committedOps                         13049                       # Number of ops (including micro ops) committed
system.cpu.cpi                               6.898659                       # CPI: cycles per instruction
system.cpu.discardedOps                          1944                       # Number of ops (including micro ops) which were discarded before commit
system.cpu.idleCycles                           57130                       # Total number of cycles that the object has spent stopped
system.cpu.ipc                               0.144956                       # IPC: instructions per cycle
system.cpu.numCycles                            77672                       # number of cpu cycles simulated
system.cpu.numFetchSuspends                         0                       # Number of times Execute suspended instruction fetching
system.cpu.numWorkItemsCompleted                    0                       # number of work items this cpu completed
system.cpu.numWorkItemsStarted                      0                       # number of work items this cpu started
system.cpu.op_class_0::No_OpClass                   0      0.00%      0.00% # Class of committed instruction
system.cpu.op_class_0::IntAlu                    9074     69.54%     69.54% # Class of committed instruction
system.cpu.op_class_0::IntMult                     49      0.38%     69.91% # Class of committed instruction
system.cpu.op_class_0::IntDiv                       0      0.00%     69.91% # Class of committed instruction
system.cpu.op_class_0::FloatAdd                     0      0.00%     69.91% # Class of committed instruction
system.cpu.op_class_0::FloatCmp                     0      0.00%     69.91% # Class of committed instruction
system.cpu.op_class_0::FloatCvt                     0      0.00%     69.91% # Class of committed instruction
system.cpu.op_class_0::FloatMult                    0      0.00%     69.91% # Class of committed instruction
system.cpu.op_class_0::FloatMultAcc                 0      0.00%     69.91% # Class of committed instruction
system.cpu.op_class_0::FloatDiv                     0      0.00%     69.91% # Class of committed instruction
system.cpu.op_class_0::FloatMisc                    0      0.00%     69.91% # Class of committed instruction
system.cpu.op_class_0::FloatSqrt                    0      0.00%     69.91% # Class of committed instruction
system.cpu.op_class_0::SimdAdd                      0      0.00%     69.91% # Class of committed instruction
system.cpu.op_class_0::SimdAddAcc                   0      0.00%     69.91% # Class of committed instruction
system.cpu.op_class_0::SimdAlu                      0      0.00%     69.91% # Class of committed instruction
system.cpu.op_class_0::SimdCmp                      0      0.00%     69.91% # Class of committed instruction
system.cpu.op_class_0::SimdCvt                      0      0.00%     69.91% # Class of committed instruction
system.cpu.op_class_0::SimdMisc                     0      0.00%     69.91% # Class of committed instruction
system.cpu.op_class_0::SimdMult                     0      0.00%     69.91% # Class of committed instruction
system.cpu.op_class_0::SimdMultAcc                  0      0.00%     69.91% # Class of committed instruction
system.cpu.op_class_0::SimdShift                    0      0.00%     69.91% # Class of committed instruction
system.cpu.op_class_0::SimdShiftAcc                 0      0.00%     69.91% # Class of committed instruction
system.cpu.op_class_0::SimdDiv                      0      0.00%     69.91% # Class of committed instruction
system.cpu.op_class_0::SimdSqrt                     0      0.00%     69.91% # Class of committed instruction
system.cpu.op_class_0::SimdFloatAdd                 0      0.00%     69.91% # Class of committed instruction
system.cpu.op_class_0::SimdFloatAlu                 0      0.00%     69.91% # Class of committed instruction
system.cpu.op_class_0::SimdFloatCmp                 0      0.00%     69.91% # Class of committed instruction
system.cpu.op_class_0::SimdFloatCvt                 0      0.00%     69.91% # Class of committed instruction
system.cpu.op_class_0::SimdFloatDiv                 0      0.00%     69.91% # Class of committed instruction
system.cpu.op_class_0::SimdFloatMisc               21      0.16%     70.07% # Class of committed instruction
system.cpu.op_class_0::SimdFloatMult                0      0.00%     70.07% # Class of committed instruction
system.cpu.op_class_0::SimdFloatMultAcc             0      0.00%     70.07% # Class of committed instruction
system.cpu.op_class_0::SimdFloatSqrt                0      0.00%     70.07% # Class of committed instruction
system.cpu.op_class_0::SimdReduceAdd                0      0.00%     70.07% # Class of committed instruction
system.cpu.op_class_0::SimdReduceAlu                0      0.00%     70.07% # Class of committed instruction
system.cpu.op_class_0::SimdReduceCmp                0      0.00%     70.07% # Class of committed instruction
system.cpu.op_class_0::SimdFloatReduceAdd            0      0.00%     70.07% # Class of committed instruction
system.cpu.op_class_0::SimdFloatReduceCmp            0      0.00%     70.07% # Class of committed instruction
system.cpu.op_class_0::SimdAes                      0      0.00%     70.07% # Class of committed instruction
system.cpu.op_class_0::SimdAesMix                   0      0.00%     70.07% # Class of committed instruction
system.cpu.op_class_0::SimdSha1Hash                 0      0.00%     70.07% # Class of committed instruction
system.cpu.op_class_0::SimdSha1Hash2                0      0.00%     70.07% # Class of committed instruction
system.cpu.op_class_0::SimdSha256Hash               0      0.00%     70.07% # Class of committed instruction
system.cpu.op_class_0::SimdSha256Hash2              0      0.00%     70.07% # Class of committed instruction
system.cpu.op_class_0::SimdShaSigma2                0      0.00%     70.07% # Class of committed instruction
system.cpu.op_class_0::SimdShaSigma3                0      0.00%     70.07% # Class of committed instruction
system.cpu.op_class_0::SimdPredAlu                  0      0.00%     70.07% # Class of committed instruction
system.cpu.op_class_0::MemRead                   1992     15.27%     85.34% # Class of committed instruction
system.cpu.op_class_0::MemWrite                  1913     14.66%    100.00% # Class of committed instruction
system.cpu.op_class_0::FloatMemRead                 0      0.00%    100.00% # Class of committed instruction
system.cpu.op_class_0::FloatMemWrite                0      0.00%    100.00% # Class of committed instruction
system.cpu.op_class_0::IprAccess                    0      0.00%    100.00% # Class of committed instruction
system.cpu.op_class_0::InstPrefetch                 0      0.00%    100.00% # Class of committed instruction
system.cpu.op_class_0::total                    13049                       # Class of committed instruction
system.cpu.tickCycles                           20542                       # Number of cycles that the object actually ticked
system.cpu.workload.numSyscalls                    13                       # Number of system calls
system.membus.snoop_filter.hit_multi_requests            3                       # Number of requests hitting in the snoop filter with multiple (>1) holders of the requested data.
system.membus.snoop_filter.hit_multi_snoops            0                       # Number of snoops hitting in the snoop filter with multiple (>1) holders of the requested data.
system.membus.snoop_filter.hit_single_requests           79                       # Number of requests hitting in the snoop filter with a single holder of the requested data.
system.membus.snoop_filter.hit_single_snoops            0                       # Number of snoops hitting in the snoop filter with a single holder of the requested data.
system.membus.snoop_filter.tot_requests           599                       # Total number of requests made to the snoop filter.
system.membus.snoop_filter.tot_snoops               0                       # Total number of snoops made to the snoop filter.
system.clk_domain.clock                          2000                       # Clock period in ticks
system.cpu.branchPred.lookups                    3906                       # Number of BP lookups
system.cpu.branchPred.condPredicted              2649                       # Number of conditional branches predicted
system.cpu.branchPred.condIncorrect               578                       # Number of conditional branches incorrect
system.cpu.branchPred.BTBLookups                 1760                       # Number of BTB lookups
system.cpu.branchPred.BTBHits                     873                       # Number of BTB hits
system.cpu.branchPred.BTBHitPct             49.602273                       # BTB Hit Percentage
system.cpu.branchPred.RASUsed                     332                       # Number of times the RAS was used to get a target.
system.cpu.branchPred.RASIncorrect                  2                       # Number of incorrect RAS predictions.
system.cpu.branchPred.indirectLookups             203                       # Number of indirect predictor lookups.
system.cpu.branchPred.indirectHits                 67                       # Number of indirect target hits.
system.cpu.branchPred.indirectMisses              136                       # Number of indirect misses.
system.cpu.branchPred.indirectMispredicted           71                       # Number of mispredicted indirect branches.
system.cpu.dcache.demand_hits::.cpu.data         3857                       # number of demand (read+write) hits
system.cpu.dcache.demand_hits::total             3857                       # number of demand (read+write) hits
system.cpu.dcache.overall_hits::.cpu.data         3878                       # number of overall hits
system.cpu.dcache.overall_hits::total            3878                       # number of overall hits
system.cpu.dcache.demand_misses::.cpu.data          225                       # number of demand (read+write) misses
system.cpu.dcache.demand_misses::total            225                       # number of demand (read+write) misses
system.cpu.dcache.overall_misses::.cpu.data          233                       # number of overall misses
system.cpu.dcache.overall_misses::total           233                       # number of overall misses
system.cpu.dcache.demand_miss_latency::.cpu.data     15656000                       # number of demand (read+write) miss cycles
system.cpu.dcache.demand_miss_latency::total     15656000                       # number of demand (read+write) miss cycles
system.cpu.dcache.overall_miss_latency::.cpu.data     15656000                       # number of overall miss cycles
system.cpu.dcache.overall_miss_latency::total     15656000                       # number of overall miss cycles
system.cpu.dcache.demand_accesses::.cpu.data         4082                       # number of demand (read+write) accesses
system.cpu.dcache.demand_accesses::total         4082                       # number of demand (read+write) accesses
system.cpu.dcache.overall_accesses::.cpu.data         4111                       # number of overall (read+write) accesses
system.cpu.dcache.overall_accesses::total         4111                       # number of overall (read+write) accesses
system.cpu.dcache.demand_miss_rate::.cpu.data     0.055120                       # miss rate for demand accesses
system.cpu.dcache.demand_miss_rate::total     0.055120                       # miss rate for demand accesses
system.cpu.dcache.overall_miss_rate::.cpu.data     0.056677                       # miss rate for overall accesses
system.cpu.dcache.overall_miss_rate::total     0.056677                       # miss rate for overall accesses
system.cpu.dcache.demand_avg_miss_latency::.cpu.data 69582.222222                       # average overall miss latency
system.cpu.dcache.demand_avg_miss_latency::total 69582.222222                       # average overall miss latency
system.cpu.dcache.overall_avg_miss_latency::.cpu.data 67193.133047                       # average overall miss latency
system.cpu.dcache.overall_avg_miss_latency::total 67193.133047                       # average overall miss latency
system.cpu.dcache.blocked_cycles::no_mshrs            0                       # number of cycles access was blocked
system.cpu.dcache.blocked_cycles::no_targets            0                       # number of cycles access was blocked
system.cpu.dcache.blocked::no_mshrs                 0                       # number of cycles access was blocked
system.cpu.dcache.blocked::no_targets               0                       # number of cycles access was blocked
system.cpu.dcache.avg_blocked_cycles::no_mshrs          nan                       # average number of cycles each access was blocked
system.cpu.dcache.avg_blocked_cycles::no_targets          nan                       # average number of cycles each access was blocked
system.cpu.dcache.demand_mshr_hits::.cpu.data           54                       # number of demand (read+write) MSHR hits
system.cpu.dcache.demand_mshr_hits::total           54                       # number of demand (read+write) MSHR hits
system.cpu.dcache.overall_mshr_hits::.cpu.data           54                       # number of overall MSHR hits
system.cpu.dcache.overall_mshr_hits::total           54                       # number of overall MSHR hits
system.cpu.dcache.demand_mshr_misses::.cpu.data          171                       # number of demand (read+write) MSHR misses
system.cpu.dcache.demand_mshr_misses::total          171                       # number of demand (read+write) MSHR misses
system.cpu.dcache.overall_mshr_misses::.cpu.data          177                       # number of overall MSHR misses
system.cpu.dcache.overall_mshr_misses::total          177                       # number of overall MSHR misses
system.cpu.dcache.demand_mshr_miss_latency::.cpu.data     11736000                       # number of demand (read+write) MSHR miss cycles
system.cpu.dcache.demand_mshr_miss_latency::total     11736000                       # number of demand (read+write) MSHR miss cycles
system.cpu.dcache.overall_mshr_miss_latency::.cpu.data     12128500                       # number of overall MSHR miss cycles
system.cpu.dcache.overall_mshr_miss_latency::total     12128500                       # number of overall MSHR miss cycles
system.cpu.dcache.demand_mshr_miss_rate::.cpu.data     0.041891                       # mshr miss rate for demand accesses
system.cpu.dcache.demand_mshr_miss_rate::total     0.041891                       # mshr miss rate for demand accesses
system.cpu.dcache.overall_mshr_miss_rate::.cpu.data     0.043055                       # mshr miss rate for overall accesses
system.cpu.dcache.overall_mshr_miss_rate::total     0.043055                       # mshr miss rate for overall accesses
system.cpu.dcache.demand_avg_mshr_miss_latency::.cpu.data 68631.578947                       # average overall mshr miss latency
system.cpu.dcache.demand_avg_mshr_miss_latency::total 68631.578947                       # average overall mshr miss latency
system.cpu.dcache.overall_avg_mshr_miss_latency::.cpu.data 68522.598870                       # average overall mshr miss latency
system.cpu.dcache.overall_avg_mshr_miss_latency::total 68522.598870                       # average overall mshr miss latency
system.cpu.dcache.replacements                      0                       # number of replacements
system.cpu.dcache.ReadReq_hits::.cpu.data         2122                       # number of ReadReq hits
system.cpu.dcache.ReadReq_hits::total            2122                       # number of ReadReq hits
system.cpu.dcache.ReadReq_misses::.cpu.data          105                       # number of ReadReq misses
system.cpu.dcache.ReadReq_misses::total           105                       # number of ReadReq misses
system.cpu.dcache.ReadReq_miss_latency::.cpu.data      7370000                       # number of ReadReq miss cycles
system.cpu.dcache.ReadReq_miss_latency::total      7370000                       # number of ReadReq miss cycles
system.cpu.dcache.ReadReq_accesses::.cpu.data         2227                       # number of ReadReq accesses(hits+misses)
system.cpu.dcache.ReadReq_accesses::total         2227                       # number of ReadReq accesses(hits+misses)
system.cpu.dcache.ReadReq_miss_rate::.cpu.data     0.047149                       # miss rate for ReadReq accesses
system.cpu.dcache.ReadReq_miss_rate::total     0.047149                       # miss rate for ReadReq accesses
system.cpu.dcache.ReadReq_avg_miss_latency::.cpu.data 70190.476190                       # average ReadReq miss latency
system.cpu.dcache.ReadReq_avg_miss_latency::total 70190.476190                       # average ReadReq miss latency
system.cpu.dcache.ReadReq_mshr_hits::.cpu.data            4                       # number of ReadReq MSHR hits
system.cpu.dcache.ReadReq_mshr_hits::total            4                       # number of ReadReq MSHR hits
system.cpu.dcache.ReadReq_mshr_misses::.cpu.data          101                       # number of ReadReq MSHR misses
system.cpu.dcache.ReadReq_mshr_misses::total          101                       # number of ReadReq MSHR misses
system.cpu.dcache.ReadReq_mshr_miss_latency::.cpu.data      7024500                       # number of ReadReq MSHR miss cycles
system.cpu.dcache.ReadReq_mshr_miss_latency::total      7024500                       # number of ReadReq MSHR miss cycles
system.cpu.dcache.ReadReq_mshr_miss_rate::.cpu.data     0.045352                       # mshr miss rate for ReadReq accesses
system.cpu.dcache.ReadReq_mshr_miss_rate::total     0.045352                       # mshr miss rate for ReadReq accesses
system.cpu.dcache.ReadReq_avg_mshr_miss_latency::.cpu.data 69549.504950                       # average ReadReq mshr miss latency
system.cpu.dcache.ReadReq_avg_mshr_miss_latency::total 69549.504950                       # average ReadReq mshr miss latency
system.cpu.dcache.WriteReq_hits::.cpu.data         1735                       # number of WriteReq hits
system.cpu.dcache.WriteReq_hits::total           1735                       # number of WriteReq hits
system.cpu.dcache.WriteReq_misses::.cpu.data          120                       # number of WriteReq misses
system.cpu.dcache.WriteReq_misses::total          120                       # number of WriteReq misses
system.cpu.dcache.WriteReq_miss_latency::.cpu.data      8286000                       # number of WriteReq miss cycles
system.cpu.dcache.WriteReq_miss_latency::total      8286000                       # number of WriteReq miss cycles
system.cpu.dcache.WriteReq_accesses::.cpu.data         1855                       # number of WriteReq accesses(hits+misses)
system.cpu.dcache.WriteReq_accesses::total         1855                       # number of WriteReq accesses(hits+misses)
system.cpu.dcache.WriteReq_miss_rate::.cpu.data     0.064690                       # miss rate for WriteReq accesses
system.cpu.dcache.WriteReq_miss_rate::total     0.064690                       # miss rate for WriteReq accesses
system.cpu.dcache.WriteReq_avg_miss_latency::.cpu.data        69050                       # average WriteReq miss latency
system.cpu.dcache.WriteReq_avg_miss_latency::total        69050                       # average WriteReq miss latency
system.cpu.dcache.WriteReq_mshr_hits::.cpu.data           50                       # number of WriteReq MSHR hits
system.cpu.dcache.WriteReq_mshr_hits::total           50                       # number of WriteReq MSHR hits
system.cpu.dcache.WriteReq_mshr_misses::.cpu.data           70                       # number of WriteReq MSHR misses
system.cpu.dcache.WriteReq_mshr_misses::total           70                       # number of WriteReq MSHR misses
system.cpu.dcache.WriteReq_mshr_miss_latency::.cpu.data      4711500                       # number of WriteReq MSHR miss cycles
system.cpu.dcache.WriteReq_mshr_miss_latency::total      4711500                       # number of WriteReq MSHR miss cycles
system.cpu.dcache.WriteReq_mshr_miss_rate::.cpu.data     0.037736                       # mshr miss rate for WriteReq accesses
system.cpu.dcache.WriteReq_mshr_miss_rate::total     0.037736                       # mshr miss rate for WriteReq accesses
system.cpu.dcache.WriteReq_avg_mshr_miss_latency::.cpu.data 67307.142857                       # average WriteReq mshr miss latency
system.cpu.dcache.WriteReq_avg_mshr_miss_latency::total 67307.142857                       # average WriteReq mshr miss latency
system.cpu.dcache.SoftPFReq_hits::.cpu.data           21                       # number of SoftPFReq hits
system.cpu.dcache.SoftPFReq_hits::total            21                       # number of SoftPFReq hits
system.cpu.dcache.SoftPFReq_misses::.cpu.data            8                       # number of SoftPFReq misses
system.cpu.dcache.SoftPFReq_misses::total            8                       # number of SoftPFReq misses
system.cpu.dcache.SoftPFReq_accesses::.cpu.data           29                       # number of SoftPFReq accesses(hits+misses)
system.cpu.dcache.SoftPFReq_accesses::total           29                       # number of SoftPFReq accesses(hits+misses)
system.cpu.dcache.SoftPFReq_miss_rate::.cpu.data     0.275862                       # miss rate for SoftPFReq accesses
system.cpu.dcache.SoftPFReq_miss_rate::total     0.275862                       # miss rate for SoftPFReq accesses
system.cpu.dcache.SoftPFReq_mshr_misses::.cpu.data            6                       # number of SoftPFReq MSHR misses
system.cpu.dcache.SoftPFReq_mshr_misses::total            6                       # number of SoftPFReq MSHR misses
system.cpu.dcache.SoftPFReq_mshr_miss_latency::.cpu.data       392500                       # number of SoftPFReq MSHR miss cycles
system.cpu.dcache.SoftPFReq_mshr_miss_latency::total       392500                       # number of SoftPFReq MSHR miss cycles
system.cpu.dcache.SoftPFReq_mshr_miss_rate::.cpu.data     0.206897                       # mshr miss rate for SoftPFReq accesses
system.cpu.dcache.SoftPFReq_mshr_miss_rate::total     0.206897                       # mshr miss rate for SoftPFReq accesses
system.cpu.dcache.SoftPFReq_avg_mshr_miss_latency::.cpu.data 65416.666667                       # average SoftPFReq mshr miss latency
system.cpu.dcache.SoftPFReq_avg_mshr_miss_latency::total 65416.666667                       # average SoftPFReq mshr miss latency
system.cpu.dcache.LoadLockedReq_hits::.cpu.data           20                       # number of LoadLockedReq hits
system.cpu.dcache.LoadLockedReq_hits::total           20                       # number of LoadLockedReq hits
system.cpu.dcache.LoadLockedReq_accesses::.cpu.data           20                       # number of LoadLockedReq accesses(hits+misses)
system.cpu.dcache.LoadLockedReq_accesses::total           20                       # number of LoadLockedReq accesses(hits+misses)
system.cpu.dcache.StoreCondReq_hits::.cpu.data           20                       # number of StoreCondReq hits
system.cpu.dcache.StoreCondReq_hits::total           20                       # number of StoreCondReq hits
system.cpu.dcache.StoreCondReq_accesses::.cpu.data           20                       # number of StoreCondReq accesses(hits+misses)
system.cpu.dcache.StoreCondReq_accesses::total           20                       # number of StoreCondReq accesses(hits+misses)
system.cpu.dcache.power_state.pwrStateResidencyTicks::UNDEFINED     38836000                       # Cumulative time (in ticks) in various power states
system.cpu.dcache.tags.tagsinuse           100.101866                       # Cycle average of tags in use
system.cpu.dcache.tags.total_refs                4095                       # Total number of references to valid blocks.
system.cpu.dcache.tags.sampled_refs               177                       # Sample count of references to valid blocks.
system.cpu.dcache.tags.avg_refs             23.135593                       # Average number of references to valid blocks.
system.cpu.dcache.tags.warmup_cycle            168000                       # Cycle when the warmup percentage was hit.
system.cpu.dcache.tags.occ_blocks::.cpu.data   100.101866                       # Average occupied blocks per requestor
system.cpu.dcache.tags.occ_percent::.cpu.data     0.097756                       # Average percentage of cache occupancy
system.cpu.dcache.tags.occ_percent::total     0.097756                       # Average percentage of cache occupancy
system.cpu.dcache.tags.occ_task_id_blocks::1024          177                       # Occupied blocks per task id
system.cpu.dcache.tags.age_task_id_blocks_1024::0           27                       # Occupied blocks per task id
system.cpu.dcache.tags.age_task_id_blocks_1024::1          150                       # Occupied blocks per task id
system.cpu.dcache.tags.occ_task_id_percent::1024     0.172852                       # Percentage of cache occupancy per task id
system.cpu.dcache.tags.tag_accesses              8479                       # Number of tag accesses
system.cpu.dcache.tags.data_accesses             8479                       # Number of data accesses
system.cpu.dcache.tags.power_state.pwrStateResidencyTicks::UNDEFINED     38836000                       # Cumulative time (in ticks) in various power states
system.cpu.dtb.instHits                             0                       # ITB inst hits
system.cpu.dtb.instMisses                           0                       # ITB inst misses
system.cpu.dtb.readHits                             0                       # DTB read hits
system.cpu.dtb.readMisses                           0                       # DTB read misses
system.cpu.dtb.writeHits                            0                       # DTB write hits
system.cpu.dtb.writeMisses                          0                       # DTB write misses
system.cpu.dtb.inserts                              0                       # Number of times an entry is inserted into the TLB
system.cpu.dtb.flushTlb                             0                       # Number of times complete TLB was flushed
system.cpu.dtb.flushTlbMva                          0                       # Number of times TLB was flushed by MVA
system.cpu.dtb.flushTlbMvaAsid                      0                       # Number of times TLB was flushed by MVA & ASID
system.cpu.dtb.flushTlbAsid                         0                       # Number of times TLB was flushed by ASID
system.cpu.dtb.flushedEntries                       0                       # Number of entries that have been flushed from TLB
system.cpu.dtb.alignFaults                          0                       # Number of TLB faults due to alignment restrictions
system.cpu.dtb.prefetchFaults                       0                       # Number of TLB faults due to prefetch
system.cpu.dtb.domainFaults                         0                       # Number of TLB faults due to domain restrictions
system.cpu.dtb.permsFaults                          0                       # Number of TLB faults due to permissions restrictions
system.cpu.dtb.readAccesses                         0                       # DTB read accesses
system.cpu.dtb.writeAccesses                        0                       # DTB write accesses
system.cpu.dtb.instAccesses                         0                       # ITB inst accesses
system.cpu.dtb.hits                                 0                       # Total TLB (inst and data) hits
system.cpu.dtb.misses                               0                       # Total TLB (inst and data) misses
system.cpu.dtb.accesses                             0                       # Total TLB (inst and data) accesses
system.cpu.dtb.stage2_mmu.stage2_tlb.instHits            0                       # ITB inst hits
system.cpu.dtb.stage2_mmu.stage2_tlb.instMisses            0                       # ITB inst misses
system.cpu.dtb.stage2_mmu.stage2_tlb.readHits            0                       # DTB read hits
system.cpu.dtb.stage2_mmu.stage2_tlb.readMisses            0                       # DTB read misses
system.cpu.dtb.stage2_mmu.stage2_tlb.writeHits            0                       # DTB write hits
system.cpu.dtb.stage2_mmu.stage2_tlb.writeMisses            0                       # DTB write misses
system.cpu.dtb.stage2_mmu.stage2_tlb.inserts            0                       # Number of times an entry is inserted into the TLB
system.cpu.dtb.stage2_mmu.stage2_tlb.flushTlb            0                       # Number of times complete TLB was flushed
system.cpu.dtb.stage2_mmu.stage2_tlb.flushTlbMva            0                       # Number of times TLB was flushed by MVA
system.cpu.dtb.stage2_mmu.stage2_tlb.flushTlbMvaAsid            0                       # Number of times TLB was flushed by MVA & ASID
system.cpu.dtb.stage2_mmu.stage2_tlb.flushTlbAsid            0                       # Number of times TLB was flushed by ASID
system.cpu.dtb.stage2_mmu.stage2_tlb.flushedEntries            0                       # Number of entries that have been flushed from TLB
system.cpu.dtb.stage2_mmu.stage2_tlb.alignFaults            0                       # Number of TLB faults due to alignment restrictions
system.cpu.dtb.stage2_mmu.stage2_tlb.prefetchFaults            0                       # Number of TLB faults due to prefetch
system.cpu.dtb.stage2_mmu.stage2_tlb.domainFaults            0                       # Number of TLB faults due to domain restrictions
system.cpu.dtb.stage2_mmu.stage2_tlb.permsFaults            0                       # Number of TLB faults due to permissions restrictions
system.cpu.dtb.stage2_mmu.stage2_tlb.readAccesses            0                       # DTB read accesses
system.cpu.dtb.stage2_mmu.stage2_tlb.writeAccesses            0                       # DTB write accesses
system.cpu.dtb.stage2_mmu.stage2_tlb.instAccesses            0                       # ITB inst accesses
system.cpu.dtb.stage2_mmu.stage2_tlb.hits            0                       # Total TLB (inst and data) hits
system.cpu.dtb.stage2_mmu.stage2_tlb.misses            0                       # Total TLB (inst and data) misses
system.cpu.dtb.stage2_mmu.stage2_tlb.accesses            0                       # Total TLB (inst and data) accesses
system.cpu.dtb.stage2_mmu.stage2_tlb.walker.walks            0                       # Table walker walks requested
system.cpu.dtb.stage2_mmu.stage2_tlb.walker.requestOrigin_Requested::Data            0                       # Table walker requests started/completed, data/inst
system.cpu.dtb.stage2_mmu.stage2_tlb.walker.requestOrigin_Requested::Inst            0                       # Table walker requests started/completed, data/inst
system.cpu.dtb.stage2_mmu.stage2_tlb.walker.requestOrigin_Requested::total            0                       # Table walker requests started/completed, data/inst
system.cpu.dtb.stage2_mmu.stage2_tlb.walker.requestOrigin_Completed::Data            0                       # Table walker requests started/completed, data/inst
system.cpu.dtb.stage2_mmu.stage2_tlb.walker.requestOrigin_Completed::Inst            0                       # Table walker requests started/completed, data/inst
system.cpu.dtb.stage2_mmu.stage2_tlb.walker.requestOrigin_Completed::total            0                       # Table walker requests started/completed, data/inst
system.cpu.dtb.stage2_mmu.stage2_tlb.walker.requestOrigin::total            0                       # Table walker requests started/completed, data/inst
system.cpu.dtb.stage2_mmu.stage2_tlb.walker.power_state.pwrStateResidencyTicks::UNDEFINED     38836000                       # Cumulative time (in ticks) in various power states
system.cpu.dtb.walker.walks                         0                       # Table walker walks requested
system.cpu.dtb.walker.requestOrigin_Requested::Data            0                       # Table walker requests started/completed, data/inst
system.cpu.dtb.walker.requestOrigin_Requested::Inst            0                       # Table walker requests started/completed, data/inst
system.cpu.dtb.walker.requestOrigin_Requested::total            0                       # Table walker requests started/completed, data/inst
system.cpu.dtb.walker.requestOrigin_Completed::Data            0                       # Table walker requests started/completed, data/inst
system.cpu.dtb.walker.requestOrigin_Completed::Inst            0                       # Table walker requests started/completed, data/inst
system.cpu.dtb.walker.requestOrigin_Completed::total            0                       # Table walker requests started/completed, data/inst
system.cpu.dtb.walker.requestOrigin::total            0                       # Table walker requests started/completed, data/inst
system.cpu.dtb.walker.power_state.pwrStateResidencyTicks::UNDEFINED     38836000                       # Cumulative time (in ticks) in various power states
system.cpu.fetch2.intInstructions               10726                       # Number of integer instructions successfully decoded
system.cpu.fetch2.fpInstructions                    0                       # Number of floating point instructions successfully decoded
system.cpu.fetch2.vecInstructions                   0                       # Number of SIMD instructions successfully decoded
system.cpu.fetch2.loadInstructions               2517                       # Number of memory load instructions successfully decoded
system.cpu.fetch2.storeInstructions              1438                       # Number of memory store instructions successfully decoded
system.cpu.fetch2.amoInstructions                   0                       # Number of memory atomic instructions successfully decoded
system.cpu.icache.demand_hits::.cpu.inst         4198                       # number of demand (read+write) hits
system.cpu.icache.demand_hits::total             4198                       # number of demand (read+write) hits
system.cpu.icache.overall_hits::.cpu.inst         4198                       # number of overall hits
system.cpu.icache.overall_hits::total            4198                       # number of overall hits
system.cpu.icache.demand_misses::.cpu.inst          364                       # number of demand (read+write) misses
system.cpu.icache.demand_misses::total            364                       # number of demand (read+write) misses
system.cpu.icache.overall_misses::.cpu.inst          364                       # number of overall misses
system.cpu.icache.overall_misses::total           364                       # number of overall misses
system.cpu.icache.demand_miss_latency::.cpu.inst     25444500                       # number of demand (read+write) miss cycles
system.cpu.icache.demand_miss_latency::total     25444500                       # number of demand (read+write) miss cycles
system.cpu.icache.overall_miss_latency::.cpu.inst     25444500                       # number of overall miss cycles
system.cpu.icache.overall_miss_latency::total     25444500                       # number of overall miss cycles
system.cpu.icache.demand_accesses::.cpu.inst         4562                       # number of demand (read+write) accesses
system.cpu.icache.demand_accesses::total         4562                       # number of demand (read+write) accesses
system.cpu.icache.overall_accesses::.cpu.inst         4562                       # number of overall (read+write) accesses
system.cpu.icache.overall_accesses::total         4562                       # number of overall (read+write) accesses
system.cpu.icache.demand_miss_rate::.cpu.inst     0.079790                       # miss rate for demand accesses
system.cpu.icache.demand_miss_rate::total     0.079790                       # miss rate for demand accesses
system.cpu.icache.overall_miss_rate::.cpu.inst     0.079790                       # miss rate for overall accesses
system.cpu.icache.overall_miss_rate::total     0.079790                       # miss rate for overall accesses
system.cpu.icache.demand_avg_miss_latency::.cpu.inst 69902.472527                       # average overall miss latency
system.cpu.icache.demand_avg_miss_latency::total 69902.472527                       # average overall miss latency
system.cpu.icache.overall_avg_miss_latency::.cpu.inst 69902.472527                       # average overall miss latency
system.cpu.icache.overall_avg_miss_latency::total 69902.472527                       # average overall miss latency
system.cpu.icache.blocked_cycles::no_mshrs            0                       # number of cycles access was blocked
system.cpu.icache.blocked_cycles::no_targets            0                       # number of cycles access was blocked
system.cpu.icache.blocked::no_mshrs                 0                       # number of cycles access was blocked
system.cpu.icache.blocked::no_targets               0                       # number of cycles access was blocked
system.cpu.icache.avg_blocked_cycles::no_mshrs          nan                       # average number of cycles each access was blocked
system.cpu.icache.avg_blocked_cycles::no_targets          nan                       # average number of cycles each access was blocked
system.cpu.icache.writebacks::.writebacks           58                       # number of writebacks
system.cpu.icache.writebacks::total                58                       # number of writebacks
system.cpu.icache.demand_mshr_misses::.cpu.inst          364                       # number of demand (read+write) MSHR misses
system.cpu.icache.demand_mshr_misses::total          364                       # number of demand (read+write) MSHR misses
system.cpu.icache.overall_mshr_misses::.cpu.inst          364                       # number of overall MSHR misses
system.cpu.icache.overall_mshr_misses::total          364                       # number of overall MSHR misses
system.cpu.icache.demand_mshr_miss_latency::.cpu.inst     25080500                       # number of demand (read+write) MSHR miss cycles
system.cpu.icache.demand_mshr_miss_latency::total     25080500                       # number of demand (read+write) MSHR miss cycles
system.cpu.icache.overall_mshr_miss_latency::.cpu.inst     25080500                       # number of overall MSHR miss cycles
system.cpu.icache.overall_mshr_miss_latency::total     25080500                       # number of overall MSHR miss cycles
system.cpu.icache.demand_mshr_miss_rate::.cpu.inst     0.079790                       # mshr miss rate for demand accesses
system.cpu.icache.demand_mshr_miss_rate::total     0.079790                       # mshr miss rate for demand accesses
system.cpu.icache.overall_mshr_miss_rate::.cpu.inst     0.079790                       # mshr miss rate for overall accesses
system.cpu.icache.overall_mshr_miss_rate::total     0.079790                       # mshr miss rate for overall accesses
system.cpu.icache.demand_avg_mshr_miss_latency::.cpu.inst 68902.472527                       # average overall mshr miss latency
system.cpu.icache.demand_avg_mshr_miss_latency::total 68902.472527                       # average overall mshr miss latency
system.cpu.icache.overall_avg_mshr_miss_latency::.cpu.inst 68902.472527                       # average overall mshr miss latency
system.cpu.icache.overall_avg_mshr_miss_latency::total 68902.472527                       # average overall mshr miss latency
system.cpu.icache.replacements                     58                       # number of replacements
system.cpu.icache.ReadReq_hits::.cpu.inst         4198                       # number of ReadReq hits
system.cpu.icache.ReadReq_hits::total            4198                       # number of ReadReq hits
system.cpu.icache.ReadReq_misses::.cpu.inst          364                       # number of ReadReq misses
system.cpu.icache.ReadReq_misses::total           364                       # number of ReadReq misses
system.cpu.icache.ReadReq_miss_latency::.cpu.inst     25444500                       # number of ReadReq miss cycles
system.cpu.icache.ReadReq_miss_latency::total     25444500                       # number of ReadReq miss cycles
system.cpu.icache.ReadReq_accesses::.cpu.inst         4562                       # number of ReadReq accesses(hits+misses)
system.cpu.icache.ReadReq_accesses::total         4562                       # number of ReadReq accesses(hits+misses)
system.cpu.icache.ReadReq_miss_rate::.cpu.inst     0.079790                       # miss rate for ReadReq accesses
system.cpu.icache.ReadReq_miss_rate::total     0.079790                       # miss rate for ReadReq accesses
system.cpu.icache.ReadReq_avg_miss_latency::.cpu.inst 69902.472527                       # average ReadReq miss latency
system.cpu.icache.ReadReq_avg_miss_latency::total 69902.472527                       # average ReadReq miss latency
system.cpu.icache.ReadReq_mshr_misses::.cpu.inst          364                       # number of ReadReq MSHR misses
system.cpu.icache.ReadReq_mshr_misses::total          364                       # number of ReadReq MSHR misses
system.cpu.icache.ReadReq_mshr_miss_latency::.cpu.inst     25080500                       # number of ReadReq MSHR miss cycles
system.cpu.icache.ReadReq_mshr_miss_latency::total     25080500                       # number of ReadReq MSHR miss cycles
system.cpu.icache.ReadReq_mshr_miss_rate::.cpu.inst     0.079790                       # mshr miss rate for ReadReq accesses
system.cpu.icache.ReadReq_mshr_miss_rate::total     0.079790                       # mshr miss rate for ReadReq accesses
system.cpu.icache.ReadReq_avg_mshr_miss_latency::.cpu.inst 68902.472527                       # average ReadReq mshr miss latency
system.cpu.icache.ReadReq_avg_mshr_miss_latency::total 68902.472527                       # average ReadReq mshr miss latency
system.cpu.icache.power_state.pwrStateResidencyTicks::UNDEFINED     38836000                       # Cumulative time (in ticks) in various power states
system.cpu.icache.tags.tagsinuse           174.960967                       # Cycle average of tags in use
system.cpu.icache.tags.total_refs                4562                       # Total number of references to valid blocks.
system.cpu.icache.tags.sampled_refs               364                       # Sample count of references to valid blocks.
system.cpu.icache.tags.avg_refs             12.532967                       # Average number of references to valid blocks.
system.cpu.icache.tags.warmup_cycle             88000                       # Cycle when the warmup percentage was hit.
system.cpu.icache.tags.occ_blocks::.cpu.inst   174.960967                       # Average occupied blocks per requestor
system.cpu.icache.tags.occ_percent::.cpu.inst     0.341721                       # Average percentage of cache occupancy
system.cpu.icache.tags.occ_percent::total     0.341721                       # Average percentage of cache occupancy
system.cpu.icache.tags.occ_task_id_blocks::1024          306                       # Occupied blocks per task id
system.cpu.icache.tags.age_task_id_blocks_1024::0           83                       # Occupied blocks per task id
system.cpu.icache.tags.age_task_id_blocks_1024::1          223                       # Occupied blocks per task id
system.cpu.icache.tags.occ_task_id_percent::1024     0.597656                       # Percentage of cache occupancy per task id
system.cpu.icache.tags.tag_accesses              9488                       # Number of tag accesses
system.cpu.icache.tags.data_accesses             9488                       # Number of data accesses
system.cpu.icache.tags.power_state.pwrStateResidencyTicks::UNDEFINED     38836000                       # Cumulative time (in ticks) in various power states
system.cpu.itb.instHits                             0                       # ITB inst hits
system.cpu.itb.instMisses                           0                       # ITB inst misses
system.cpu.itb.readHits                             0                       # DTB read hits
system.cpu.itb.readMisses                           0                       # DTB read misses
system.cpu.itb.writeHits                            0                       # DTB write hits
system.cpu.itb.writeMisses                          0                       # DTB write misses
system.cpu.itb.inserts                              0                       # Number of times an entry is inserted into the TLB
system.cpu.itb.flushTlb                             0                       # Number of times complete TLB was flushed
system.cpu.itb.flushTlbMva                          0                       # Number of times TLB was flushed by MVA
system.cpu.itb.flushTlbMvaAsid                      0                       # Number of times TLB was flushed by MVA & ASID
system.cpu.itb.flushTlbAsid                         0                       # Number of times TLB was flushed by ASID
system.cpu.itb.flushedEntries                       0                       # Number of entries that have been flushed from TLB
system.cpu.itb.alignFaults                          0                       # Number of TLB faults due to alignment restrictions
system.cpu.itb.prefetchFaults                       0                       # Number of TLB faults due to prefetch
system.cpu.itb.domainFaults                         0                       # Number of TLB faults due to domain restrictions
system.cpu.itb.permsFaults                          0                       # Number of TLB faults due to permissions restrictions
system.cpu.itb.readAccesses                         0                       # DTB read accesses
system.cpu.itb.writeAccesses                        0                       # DTB write accesses
system.cpu.itb.instAccesses                         0                       # ITB inst accesses
system.cpu.itb.hits                                 0                       # Total TLB (inst and data) hits
system.cpu.itb.misses                               0                       # Total TLB (inst and data) misses
system.cpu.itb.accesses                             0                       # Total TLB (inst and data) accesses
system.cpu.itb.stage2_mmu.stage2_tlb.instHits            0                       # ITB inst hits
system.cpu.itb.stage2_mmu.stage2_tlb.instMisses            0                       # ITB inst misses
system.cpu.itb.stage2_mmu.stage2_tlb.readHits            0                       # DTB read hits
system.cpu.itb.stage2_mmu.stage2_tlb.readMisses            0                       # DTB read misses
system.cpu.itb.stage2_mmu.stage2_tlb.writeHits            0                       # DTB write hits
system.cpu.itb.stage2_mmu.stage2_tlb.writeMisses            0                       # DTB write misses
system.cpu.itb.stage2_mmu.stage2_tlb.inserts            0                       # Number of times an entry is inserted into the TLB
system.cpu.itb.stage2_mmu.stage2_tlb.flushTlb            0                       # Number of times complete TLB was flushed
system.cpu.itb.stage2_mmu.stage2_tlb.flushTlbMva            0                       # Number of times TLB was flushed by MVA
system.cpu.itb.stage2_mmu.stage2_tlb.flushTlbMvaAsid            0                       # Number of times TLB was flushed by MVA & ASID
system.cpu.itb.stage2_mmu.stage2_tlb.flushTlbAsid            0                       # Number of times TLB was flushed by ASID
system.cpu.itb.stage2_mmu.stage2_tlb.flushedEntries            0                       # Number of entries that have been flushed from TLB
system.cpu.itb.stage2_mmu.stage2_tlb.alignFaults            0                       # Number of TLB faults due to alignment restrictions
system.cpu.itb.stage2_mmu.stage2_tlb.prefetchFaults            0                       # Number of TLB faults due to prefetch
system.cpu.itb.stage2_mmu.stage2_tlb.domainFaults            0                       # Number of TLB faults due to domain restrictions
system.cpu.itb.stage2_mmu.stage2_tlb.permsFaults            0                       # Number of TLB faults due to permissions restrictions
system.cpu.itb.stage2_mmu.stage2_tlb.readAccesses            0                       # DTB read accesses
system.cpu.itb.stage2_mmu.stage2_tlb.writeAccesses            0                       # DTB write accesses
system.cpu.itb.stage2_mmu.stage2_tlb.instAccesses            0                       # ITB inst accesses
system.cpu.itb.stage2_mmu.stage2_tlb.hits            0                       # Total TLB (inst and data) hits
system.cpu.itb.stage2_mmu.stage2_tlb.misses            0                       # Total TLB (inst and data) misses
system.cpu.itb.stage2_mmu.stage2_tlb.accesses            0                       # Total TLB (inst and data) accesses
system.cpu.itb.stage2_mmu.stage2_tlb.walker.walks            0                       # Table walker walks requested
system.cpu.itb.stage2_mmu.stage2_tlb.walker.requestOrigin_Requested::Data            0                       # Table walker requests started/completed, data/inst
system.cpu.itb.stage2_mmu.stage2_tlb.walker.requestOrigin_Requested::Inst            0                       # Table walker requests started/completed, data/inst
system.cpu.itb.stage2_mmu.stage2_tlb.walker.requestOrigin_Requested::total            0                       # Table walker requests started/completed, data/inst
system.cpu.itb.stage2_mmu.stage2_tlb.walker.requestOrigin_Completed::Data            0                       # Table walker requests started/completed, data/inst
system.cpu.itb.stage2_mmu.stage2_tlb.walker.requestOrigin_Completed::Inst            0                       # Table walker requests started/completed, data/inst
system.cpu.itb.stage2_mmu.stage2_tlb.walker.requestOrigin_Completed::total            0                       # Table walker requests started/completed, data/inst
system.cpu.itb.stage2_mmu.stage2_tlb.walker.requestOrigin::total            0                       # Table walker requests started/completed, data/inst
system.cpu.itb.stage2_mmu.stage2_tlb.walker.power_state.pwrStateResidencyTicks::UNDEFINED     38836000                       # Cumulative time (in ticks) in various power states
system.cpu.itb.walker.walks                         0                       # Table walker walks requested
system.cpu.itb.walker.requestOrigin_Requested::Data            0                       # Table walker requests started/completed, data/inst
system.cpu.itb.walker.requestOrigin_Requested::Inst            0                       # Table walker requests started/completed, data/inst
system.cpu.itb.walker.requestOrigin_Requested::total            0                       # Table walker requests started/completed, data/inst
system.cpu.itb.walker.requestOrigin_Completed::Data            0                       # Table walker requests started/completed, data/inst
system.cpu.itb.walker.requestOrigin_Completed::Inst            0                       # Table walker requests started/completed, data/inst
system.cpu.itb.walker.requestOrigin_Completed::total            0                       # Table walker requests started/completed, data/inst
system.cpu.itb.walker.requestOrigin::total            0                       # Table walker requests started/completed, data/inst
system.cpu.itb.walker.power_state.pwrStateResidencyTicks::UNDEFINED     38836000                       # Cumulative time (in ticks) in various power states
system.cpu.power_state.pwrStateResidencyTicks::ON     38836000                       # Cumulative time (in ticks) in various power states
system.cpu.thread_0.numInsts                    11259                       # Number of Instructions committed
system.cpu.thread_0.numOps                      13049                       # Number of Ops committed
system.cpu.thread_0.numMemRefs                      0                       # Number of Memory References
system.cpu_clk_domain.clock                       500                       # Clock period in ticks
system.cpu_voltage_domain.voltage                   1                       # Voltage in Volts
system.mem_ctrls.avgPriority_.writebacks::samples        55.00                       # Average QoS priority value for accepted requests
system.mem_ctrls.avgPriority_.cpu.inst::samples       356.00                       # Average QoS priority value for accepted requests
system.mem_ctrls.avgPriority_.cpu.data::samples       176.00                       # Average QoS priority value for accepted requests
system.mem_ctrls.priorityMinLatency      0.000000018750                       # per QoS priority minimum request to response latency (s)
system.mem_ctrls.priorityMaxLatency      0.000034600500                       # per QoS priority maximum request to response latency (s)
system.mem_ctrls.numReadWriteTurnArounds            2                       # Number of turnarounds from READ to WRITE
system.mem_ctrls.numWriteReadTurnArounds            2                       # Number of turnarounds from WRITE to READ
system.mem_ctrls.numStayReadState                1116                       # Number of times bus staying in READ state
system.mem_ctrls.numStayWriteState                 30                       # Number of times bus staying in WRITE state
system.mem_ctrls.readReqs                         541                       # Number of read requests accepted
system.mem_ctrls.writeReqs                         55                       # Number of write requests accepted
system.mem_ctrls.readBursts                       541                       # Number of controller read bursts, including those serviced by the write queue
system.mem_ctrls.writeBursts                       55                       # Number of controller write bursts, including those merged in the write queue
system.mem_ctrls.servicedByWrQ                      9                       # Number of controller read bursts serviced by the write queue
system.mem_ctrls.mergedWrBursts                     0                       # Number of controller write bursts merged with an existing one
system.mem_ctrls.neitherReadNorWriteReqs            0                       # Number of requests that are neither read nor write
system.mem_ctrls.avgRdQLen                       1.17                       # Average read queue length when enqueuing
system.mem_ctrls.avgWrQLen                       9.21                       # Average write queue length when enqueuing
system.mem_ctrls.numRdRetry                         0                       # Number of times read queue was full causing retry
system.mem_ctrls.numWrRetry                         0                       # Number of times write queue was full causing retry
system.mem_ctrls.readPktSize::0                     0                       # Read request sizes (log2)
system.mem_ctrls.readPktSize::1                     0                       # Read request sizes (log2)
system.mem_ctrls.readPktSize::2                     0                       # Read request sizes (log2)
system.mem_ctrls.readPktSize::3                     0                       # Read request sizes (log2)
system.mem_ctrls.readPktSize::4                     0                       # Read request sizes (log2)
system.mem_ctrls.readPktSize::5                     0                       # Read request sizes (log2)
system.mem_ctrls.readPktSize::6                   541                       # Read request sizes (log2)
system.mem_ctrls.writePktSize::0                    0                       # Write request sizes (log2)
system.mem_ctrls.writePktSize::1                    0                       # Write request sizes (log2)
system.mem_ctrls.writePktSize::2                    0                       # Write request sizes (log2)
system.mem_ctrls.writePktSize::3                    0                       # Write request sizes (log2)
system.mem_ctrls.writePktSize::4                    0                       # Write request sizes (log2)
system.mem_ctrls.writePktSize::5                    0                       # Write request sizes (log2)
system.mem_ctrls.writePktSize::6                   55                       # Write request sizes (log2)
system.mem_ctrls.rdQLenPdf::0                     444                       # What read queue length does an incoming req see
system.mem_ctrls.rdQLenPdf::1                      84                       # What read queue length does an incoming req see
system.mem_ctrls.rdQLenPdf::2                       4                       # What read queue length does an incoming req see
system.mem_ctrls.rdQLenPdf::3                       0                       # What read queue length does an incoming req see
system.mem_ctrls.rdQLenPdf::4                       0                       # What read queue length does an incoming req see
system.mem_ctrls.rdQLenPdf::5                       0                       # What read queue length does an incoming req see
system.mem_ctrls.rdQLenPdf::6                       0                       # What read queue length does an incoming req see
system.mem_ctrls.rdQLenPdf::7                       0                       # What read queue length does an incoming req see
system.mem_ctrls.rdQLenPdf::8                       0                       # What read queue length does an incoming req see
system.mem_ctrls.rdQLenPdf::9                       0                       # What read queue length does an incoming req see
system.mem_ctrls.rdQLenPdf::10                      0                       # What read queue length does an incoming req see
system.mem_ctrls.rdQLenPdf::11                      0                       # What read queue length does an incoming req see
system.mem_ctrls.rdQLenPdf::12                      0                       # What read queue length does an incoming req see
system.mem_ctrls.rdQLenPdf::13                      0                       # What read queue length does an incoming req see
system.mem_ctrls.rdQLenPdf::14                      0                       # What read queue length does an incoming req see
system.mem_ctrls.rdQLenPdf::15                      0                       # What read queue length does an incoming req see
system.mem_ctrls.rdQLenPdf::16                      0                       # What read queue length does an incoming req see
system.mem_ctrls.rdQLenPdf::17                      0                       # What read queue length does an incoming req see
system.mem_ctrls.rdQLenPdf::18                      0                       # What read queue length does an incoming req see
system.mem_ctrls.rdQLenPdf::19                      0                       # What read queue length does an incoming req see
system.mem_ctrls.rdQLenPdf::20                      0                       # What read queue length does an incoming req see
system.mem_ctrls.rdQLenPdf::21                      0                       # What read queue length does an incoming req see
system.mem_ctrls.rdQLenPdf::22                      0                       # What read queue length does an incoming req see
system.mem_ctrls.rdQLenPdf::23                      0                       # What read queue length does an incoming req see
system.mem_ctrls.rdQLenPdf::24                      0                       # What read queue length does an incoming req see
system.mem_ctrls.rdQLenPdf::25                      0                       # What read queue length does an incoming req see
system.mem_ctrls.rdQLenPdf::26                      0                       # What read queue length does an incoming req see
system.mem_ctrls.rdQLenPdf::27                      0                       # What read queue length does an incoming req see
system.mem_ctrls.rdQLenPdf::28                      0                       # What read queue length does an incoming req see
system.mem_ctrls.rdQLenPdf::29                      0                       # What read queue length does an incoming req see
system.mem_ctrls.rdQLenPdf::30                      0                       # What read queue length does an incoming req see
system.mem_ctrls.rdQLenPdf::31                      0                       # What read queue length does an incoming req see
system.mem_ctrls.wrQLenPdf::0                       1                       # What write queue length does an incoming req see
system.mem_ctrls.wrQLenPdf::1                       1                       # What write queue length does an incoming req see
system.mem_ctrls.wrQLenPdf::2                       1                       # What write queue length does an incoming req see
system.mem_ctrls.wrQLenPdf::3                       1                       # What write queue length does an incoming req see
system.mem_ctrls.wrQLenPdf::4                       1                       # What write queue length does an incoming req see
system.mem_ctrls.wrQLenPdf::5                       1                       # What write queue length does an incoming req see
system.mem_ctrls.wrQLenPdf::6                       1                       # What write queue length does an incoming req see
system.mem_ctrls.wrQLenPdf::7                       1                       # What write queue length does an incoming req see
system.mem_ctrls.wrQLenPdf::8                       1                       # What write queue length does an incoming req see
system.mem_ctrls.wrQLenPdf::9                       1                       # What write queue length does an incoming req see
system.mem_ctrls.wrQLenPdf::10                      1                       # What write queue length does an incoming req see
system.mem_ctrls.wrQLenPdf::11                      1                       # What write queue length does an incoming req see
system.mem_ctrls.wrQLenPdf::12                      1                       # What write queue length does an incoming req see
system.mem_ctrls.wrQLenPdf::13                      1                       # What write queue length does an incoming req see
system.mem_ctrls.wrQLenPdf::14                      1                       # What write queue length does an incoming req see
system.mem_ctrls.wrQLenPdf::15                      1                       # What write queue length does an incoming req see
system.mem_ctrls.wrQLenPdf::16                      1                       # What write queue length does an incoming req see
system.mem_ctrls.wrQLenPdf::17                      3                       # What write queue length does an incoming req see
system.mem_ctrls.wrQLenPdf::18                      3                       # What write queue length does an incoming req see
system.mem_ctrls.wrQLenPdf::19                      3                       # What write queue length does an incoming req see
system.mem_ctrls.wrQLenPdf::20                      3                       # What write queue length does an incoming req see
system.mem_ctrls.wrQLenPdf::21                      3                       # What write queue length does an incoming req see
system.mem_ctrls.wrQLenPdf::22                      3                       # What write queue length does an incoming req see
system.mem_ctrls.wrQLenPdf::23                      2                       # What write queue length does an incoming req see
system.mem_ctrls.wrQLenPdf::24                      2                       # What write queue length does an incoming req see
system.mem_ctrls.wrQLenPdf::25                      2                       # What write queue length does an incoming req see
system.mem_ctrls.wrQLenPdf::26                      2                       # What write queue length does an incoming req see
system.mem_ctrls.wrQLenPdf::27                      2                       # What write queue length does an incoming req see
system.mem_ctrls.wrQLenPdf::28                      2                       # What write queue length does an incoming req see
system.mem_ctrls.wrQLenPdf::29                      2                       # What write queue length does an incoming req see
system.mem_ctrls.wrQLenPdf::30                      2                       # What write queue length does an incoming req see
system.mem_ctrls.wrQLenPdf::31                      2                       # What write queue length does an incoming req see
system.mem_ctrls.wrQLenPdf::32                      2                       # What write queue length does an incoming req see
system.mem_ctrls.wrQLenPdf::33                      0                       # What write queue length does an incoming req see
system.mem_ctrls.wrQLenPdf::34                      0                       # What write queue length does an incoming req see
system.mem_ctrls.wrQLenPdf::35                      0                       # What write queue length does an incoming req see
system.mem_ctrls.wrQLenPdf::36                      0                       # What write queue length does an incoming req see
system.mem_ctrls.wrQLenPdf::37                      0                       # What write queue length does an incoming req see
system.mem_ctrls.wrQLenPdf::38                      0                       # What write queue length does an incoming req see
system.mem_ctrls.wrQLenPdf::39                      0                       # What write queue length does an incoming req see
system.mem_ctrls.wrQLenPdf::40                      0                       # What write queue length does an incoming req see
system.mem_ctrls.wrQLenPdf::41                      0                       # What write queue length does an incoming req see
system.mem_ctrls.wrQLenPdf::42                      0                       # What write queue length does an incoming req see
system.mem_ctrls.wrQLenPdf::43                      0                       # What write queue length does an incoming req see
system.mem_ctrls.wrQLenPdf::44                      0                       # What write queue length does an incoming req see
system.mem_ctrls.wrQLenPdf::45                      0                       # What write queue length does an incoming req see
system.mem_ctrls.wrQLenPdf::46                      0                       # What write queue length does an incoming req see
system.mem_ctrls.wrQLenPdf::47                      0                       # What write queue length does an incoming req see
system.mem_ctrls.wrQLenPdf::48                      0                       # What write queue length does an incoming req see
system.mem_ctrls.wrQLenPdf::49                      0                       # What write queue length does an incoming req see
system.mem_ctrls.wrQLenPdf::50                      0                       # What write queue length does an incoming req see
system.mem_ctrls.wrQLenPdf::51                      0                       # What write queue length does an incoming req see
system.mem_ctrls.wrQLenPdf::52                      0                       # What write queue length does an incoming req see
system.mem_ctrls.wrQLenPdf::53                      0                       # What write queue length does an incoming req see
system.mem_ctrls.wrQLenPdf::54                      0                       # What write queue length does an incoming req see
system.mem_ctrls.wrQLenPdf::55                      0                       # What write queue length does an incoming req see
system.mem_ctrls.wrQLenPdf::56                      0                       # What write queue length does an incoming req see
system.mem_ctrls.wrQLenPdf::57                      0                       # What write queue length does an incoming req see
system.mem_ctrls.wrQLenPdf::58                      0                       # What write queue length does an incoming req see
system.mem_ctrls.wrQLenPdf::59                      0                       # What write queue length does an incoming req see
system.mem_ctrls.wrQLenPdf::60                      0                       # What write queue length does an incoming req see
system.mem_ctrls.wrQLenPdf::61                      0                       # What write queue length does an incoming req see
system.mem_ctrls.wrQLenPdf::62                      0                       # What write queue length does an incoming req see
system.mem_ctrls.wrQLenPdf::63                      0                       # What write queue length does an incoming req see
system.mem_ctrls.rdPerTurnAround::samples            2                       # Reads before turning the bus around for writes
system.mem_ctrls.rdPerTurnAround::mean            243                       # Reads before turning the bus around for writes
system.mem_ctrls.rdPerTurnAround::gmean    122.266103                       # Reads before turning the bus around for writes
system.mem_ctrls.rdPerTurnAround::stdev    296.984848                       # Reads before turning the bus around for writes
system.mem_ctrls.rdPerTurnAround::32-47             1     50.00%     50.00% # Reads before turning the bus around for writes
system.mem_ctrls.rdPerTurnAround::448-463            1     50.00%    100.00% # Reads before turning the bus around for writes
system.mem_ctrls.rdPerTurnAround::total             2                       # Reads before turning the bus around for writes
system.mem_ctrls.wrPerTurnAround::samples            2                       # Writes before turning the bus around for reads
system.mem_ctrls.wrPerTurnAround::mean             16                       # Writes before turning the bus around for reads
system.mem_ctrls.wrPerTurnAround::gmean     16.000000                       # Writes before turning the bus around for reads
system.mem_ctrls.wrPerTurnAround::16                2    100.00%    100.00% # Writes before turning the bus around for reads
system.mem_ctrls.wrPerTurnAround::total             2                       # Writes before turning the bus around for reads
system.mem_ctrls.bytesReadWrQ                     576                       # Total number of bytes read from write queue
system.mem_ctrls.bytesReadSys                   34624                       # Total read bytes from the system interface side
system.mem_ctrls.bytesWrittenSys                 3520                       # Total written bytes from the system interface side
system.mem_ctrls.avgRdBWSys                    891.54                       # Average system read bandwidth in MiByte/s
system.mem_ctrls.avgWrBWSys                     90.64                       # Average system write bandwidth in MiByte/s
system.mem_ctrls.totGap                      38827500                       # Total gap between requests
system.mem_ctrls.avgGap                      65146.81                       # Average gap between requests
system.mem_ctrls.requestorReadBytes::.cpu.inst        22784                       # Per-requestor bytes read from memory
system.mem_ctrls.requestorReadBytes::.cpu.data        11264                       # Per-requestor bytes read from memory
system.mem_ctrls.requestorWriteBytes::.writebacks         2048                       # Per-requestor bytes write to memory
system.mem_ctrls.requestorReadRate::.cpu.inst 586672159.851683974266                       # Per-requestor bytes read from memory rate (Bytes/sec)
system.mem_ctrls.requestorReadRate::.cpu.data 290040168.915439307690                       # Per-requestor bytes read from memory rate (Bytes/sec)
system.mem_ctrls.requestorWriteRate::.writebacks 52734576.166443504393                       # Per-requestor bytes write to memory rate (Bytes/sec)
system.mem_ctrls.requestorReadAccesses::.cpu.inst          364                       # Per-requestor read serviced memory accesses
system.mem_ctrls.requestorReadAccesses::.cpu.data          177                       # Per-requestor read serviced memory accesses
system.mem_ctrls.requestorWriteAccesses::.writebacks           55                       # Per-requestor write serviced memory accesses
system.mem_ctrls.requestorReadTotalLat::.cpu.inst      9240750                       # Per-requestor read total memory access latency
system.mem_ctrls.requestorReadTotalLat::.cpu.data      4416750                       # Per-requestor read total memory access latency
system.mem_ctrls.requestorWriteTotalLat::.writebacks    212812500                       # Per-requestor write total memory access latency
system.mem_ctrls.requestorReadAvgLat::.cpu.inst     25386.68                       # Per-requestor read average memory access latency
system.mem_ctrls.requestorReadAvgLat::.cpu.data     24953.39                       # Per-requestor read average memory access latency
system.mem_ctrls.requestorWriteAvgLat::.writebacks   3869318.18                       # Per-requestor write average memory access latency
system.mem_ctrls.dram.bytes_read::.cpu.inst        23296                       # Number of bytes read from this memory
system.mem_ctrls.dram.bytes_read::.cpu.data        11328                       # Number of bytes read from this memory
system.mem_ctrls.dram.bytes_read::total         34624                       # Number of bytes read from this memory
system.mem_ctrls.dram.bytes_inst_read::.cpu.inst        23296                       # Number of instructions bytes read from this memory
system.mem_ctrls.dram.bytes_inst_read::total        23296                       # Number of instructions bytes read from this memory
system.mem_ctrls.dram.num_reads::.cpu.inst          364                       # Number of read requests responded to by this memory
system.mem_ctrls.dram.num_reads::.cpu.data          177                       # Number of read requests responded to by this memory
system.mem_ctrls.dram.num_reads::total            541                       # Number of read requests responded to by this memory
system.mem_ctrls.dram.bw_read::.cpu.inst    599855804                       # Total read bandwidth from this memory (bytes/s)
system.mem_ctrls.dram.bw_read::.cpu.data    291688124                       # Total read bandwidth from this memory (bytes/s)
system.mem_ctrls.dram.bw_read::total        891543928                       # Total read bandwidth from this memory (bytes/s)
system.mem_ctrls.dram.bw_inst_read::.cpu.inst    599855804                       # Instruction read bandwidth from this memory (bytes/s)
system.mem_ctrls.dram.bw_inst_read::total    599855804                       # Instruction read bandwidth from this memory (bytes/s)
system.mem_ctrls.dram.bw_total::.cpu.inst    599855804                       # Total bandwidth to/from this memory (bytes/s)
system.mem_ctrls.dram.bw_total::.cpu.data    291688124                       # Total bandwidth to/from this memory (bytes/s)
system.mem_ctrls.dram.bw_total::total       891543928                       # Total bandwidth to/from this memory (bytes/s)
system.mem_ctrls.dram.readBursts                  532                       # Number of DRAM read bursts
system.mem_ctrls.dram.writeBursts                  32                       # Number of DRAM write bursts
system.mem_ctrls.dram.perBankRdBursts::0           52                       # Per bank write bursts
system.mem_ctrls.dram.perBankRdBursts::1            2                       # Per bank write bursts
system.mem_ctrls.dram.perBankRdBursts::2           23                       # Per bank write bursts
system.mem_ctrls.dram.perBankRdBursts::3           12                       # Per bank write bursts
system.mem_ctrls.dram.perBankRdBursts::4           12                       # Per bank write bursts
system.mem_ctrls.dram.perBankRdBursts::5           35                       # Per bank write bursts
system.mem_ctrls.dram.perBankRdBursts::6           44                       # Per bank write bursts
system.mem_ctrls.dram.perBankRdBursts::7           60                       # Per bank write bursts
system.mem_ctrls.dram.perBankRdBursts::8           52                       # Per bank write bursts
system.mem_ctrls.dram.perBankRdBursts::9           82                       # Per bank write bursts
system.mem_ctrls.dram.perBankRdBursts::10           53                       # Per bank write bursts
system.mem_ctrls.dram.perBankRdBursts::11           77                       # Per bank write bursts
system.mem_ctrls.dram.perBankRdBursts::12           16                       # Per bank write bursts
system.mem_ctrls.dram.perBankRdBursts::13            5                       # Per bank write bursts
system.mem_ctrls.dram.perBankRdBursts::14            7                       # Per bank write bursts
system.mem_ctrls.dram.perBankRdBursts::15            0                       # Per bank write bursts
system.mem_ctrls.dram.perBankWrBursts::0           11                       # Per bank write bursts
system.mem_ctrls.dram.perBankWrBursts::1            1                       # Per bank write bursts
system.mem_ctrls.dram.perBankWrBursts::2            1                       # Per bank write bursts
system.mem_ctrls.dram.perBankWrBursts::3            0                       # Per bank write bursts
system.mem_ctrls.dram.perBankWrBursts::4            0                       # Per bank write bursts
system.mem_ctrls.dram.perBankWrBursts::5            0                       # Per bank write bursts
system.mem_ctrls.dram.perBankWrBursts::6            0                       # Per bank write bursts
system.mem_ctrls.dram.perBankWrBursts::7            5                       # Per bank write bursts
system.mem_ctrls.dram.perBankWrBursts::8            6                       # Per bank write bursts
system.mem_ctrls.dram.perBankWrBursts::9            0                       # Per bank write bursts
system.mem_ctrls.dram.perBankWrBursts::10            0                       # Per bank write bursts
system.mem_ctrls.dram.perBankWrBursts::11            8                       # Per bank write bursts
system.mem_ctrls.dram.perBankWrBursts::12            0                       # Per bank write bursts
system.mem_ctrls.dram.perBankWrBursts::13            0                       # Per bank write bursts
system.mem_ctrls.dram.perBankWrBursts::14            0                       # Per bank write bursts
system.mem_ctrls.dram.perBankWrBursts::15            0                       # Per bank write bursts
system.mem_ctrls.dram.totQLat                 3682500                       # Total ticks spent queuing
system.mem_ctrls.dram.totBusLat               2660000                       # Total ticks spent in databus transfers
system.mem_ctrls.dram.totMemAccLat           13657500                       # Total ticks spent from burst creation until serviced by the DRAM
system.mem_ctrls.dram.avgQLat                 6921.99                       # Average queueing delay per DRAM burst
system.mem_ctrls.dram.avgBusLat               5000.00                       # Average bus latency per DRAM burst
system.mem_ctrls.dram.avgMemAccLat           25671.99                       # Average memory access latency per DRAM burst
system.mem_ctrls.dram.readRowHits                 428                       # Number of row buffer hits during reads
system.mem_ctrls.dram.writeRowHits                 29                       # Number of row buffer hits during writes
system.mem_ctrls.dram.readRowHitRate            80.45                       # Row buffer hit rate for reads
system.mem_ctrls.dram.writeRowHitRate           90.62                       # Row buffer hit rate for writes
system.mem_ctrls.dram.bytesPerActivate::samples           97                       # Bytes accessed per row activation
system.mem_ctrls.dram.bytesPerActivate::mean   336.494845                       # Bytes accessed per row activation
system.mem_ctrls.dram.bytesPerActivate::gmean   223.883302                       # Bytes accessed per row activation
system.mem_ctrls.dram.bytesPerActivate::stdev   307.110869                       # Bytes accessed per row activation
system.mem_ctrls.dram.bytesPerActivate::0-127           21     21.65%     21.65% # Bytes accessed per row activation
system.mem_ctrls.dram.bytesPerActivate::128-255           30     30.93%     52.58% # Bytes accessed per row activation
system.mem_ctrls.dram.bytesPerActivate::256-383           15     15.46%     68.04% # Bytes accessed per row activation
system.mem_ctrls.dram.bytesPerActivate::384-511            7      7.22%     75.26% # Bytes accessed per row activation
system.mem_ctrls.dram.bytesPerActivate::512-639            6      6.19%     81.44% # Bytes accessed per row activation
system.mem_ctrls.dram.bytesPerActivate::640-767            4      4.12%     85.57% # Bytes accessed per row activation
system.mem_ctrls.dram.bytesPerActivate::768-895            3      3.09%     88.66% # Bytes accessed per row activation
system.mem_ctrls.dram.bytesPerActivate::896-1023            2      2.06%     90.72% # Bytes accessed per row activation
system.mem_ctrls.dram.bytesPerActivate::1024-1151            9      9.28%    100.00% # Bytes accessed per row activation
system.mem_ctrls.dram.bytesPerActivate::total           97                       # Bytes accessed per row activation
system.mem_ctrls.dram.bytesRead                 34048                       # Total number of bytes read from DRAM
system.mem_ctrls.dram.bytesWritten               2048                       # Total number of bytes written to DRAM
system.mem_ctrls.dram.avgRdBW              876.712329                       # Average DRAM read bandwidth in MiBytes/s
system.mem_ctrls.dram.avgWrBW               52.734576                       # Average DRAM write bandwidth in MiBytes/s
system.mem_ctrls.dram.peakBW                 12800.00                       # Theoretical peak bandwidth in MiByte/s
system.mem_ctrls.dram.busUtil                    7.26                       # Data bus utilization in percentage
system.mem_ctrls.dram.busUtilRead                6.85                       # Data bus utilization in percentage for reads
system.mem_ctrls.dram.busUtilWrite               0.41                       # Data bus utilization in percentage for writes
system.mem_ctrls.dram.pageHitRate               81.03                       # Row buffer hit rate, read and write combined
system.mem_ctrls.dram.power_state.pwrStateResidencyTicks::UNDEFINED     38836000                       # Cumulative time (in ticks) in various power states
system.mem_ctrls.dram.rank0.actEnergy          278460                       # Energy for activate commands per rank (pJ)
system.mem_ctrls.dram.rank0.preEnergy          129030                       # Energy for precharge commands per rank (pJ)
system.mem_ctrls.dram.rank0.readEnergy        1713600                       # Energy for read commands per rank (pJ)
system.mem_ctrls.dram.rank0.writeEnergy         93960                       # Energy for write commands per rank (pJ)
system.mem_ctrls.dram.rank0.refreshEnergy 2458560.000000                       # Energy for refresh commands per rank (pJ)
system.mem_ctrls.dram.rank0.actBackEnergy     17306910                       # Energy for active background per rank (pJ)
system.mem_ctrls.dram.rank0.preBackEnergy       338880                       # Energy for precharge background per rank (pJ)
system.mem_ctrls.dram.rank0.actPowerDownEnergy            0                       # Energy for active power-down per rank (pJ)
system.mem_ctrls.dram.rank0.prePowerDownEnergy            0                       # Energy for precharge power-down per rank (pJ)
system.mem_ctrls.dram.rank0.selfRefreshEnergy            0                       # Energy for self refresh per rank (pJ)
system.mem_ctrls.dram.rank0.totalEnergy      22319400                       # Total energy per rank (pJ)
system.mem_ctrls.dram.rank0.averagePower   574.709033                       # Core power per rank (mW)
system.mem_ctrls.dram.rank0.totalIdleTime            0                       # Total Idle time Per DRAM Rank
system.mem_ctrls.dram.rank0.pwrStateTime::IDLE       757250                       # Time in different power states
system.mem_ctrls.dram.rank0.pwrStateTime::REF      1040000                       # Time in different power states
system.mem_ctrls.dram.rank0.pwrStateTime::SREF            0                       # Time in different power states
system.mem_ctrls.dram.rank0.pwrStateTime::PRE_PDN            0                       # Time in different power states
system.mem_ctrls.dram.rank0.pwrStateTime::ACT     37038750                       # Time in different power states
system.mem_ctrls.dram.rank0.pwrStateTime::ACT_PDN            0                       # Time in different power states
system.mem_ctrls.dram.rank1.actEnergy          485520                       # Energy for activate commands per rank (pJ)
system.mem_ctrls.dram.rank1.preEnergy          239085                       # Energy for precharge commands per rank (pJ)
system.mem_ctrls.dram.rank1.readEnergy        2084880                       # Energy for read commands per rank (pJ)
system.mem_ctrls.dram.rank1.writeEnergy         73080                       # Energy for write commands per rank (pJ)
system.mem_ctrls.dram.rank1.refreshEnergy 2458560.000000                       # Energy for refresh commands per rank (pJ)
system.mem_ctrls.dram.rank1.actBackEnergy     17168970                       # Energy for active background per rank (pJ)
system.mem_ctrls.dram.rank1.preBackEnergy       455040                       # Energy for precharge background per rank (pJ)
system.mem_ctrls.dram.rank1.actPowerDownEnergy            0                       # Energy for active power-down per rank (pJ)
system.mem_ctrls.dram.rank1.prePowerDownEnergy            0                       # Energy for precharge power-down per rank (pJ)
system.mem_ctrls.dram.rank1.selfRefreshEnergy            0                       # Energy for self refresh per rank (pJ)
system.mem_ctrls.dram.rank1.totalEnergy      22965135                       # Total energy per rank (pJ)
system.mem_ctrls.dram.rank1.averagePower   591.336260                       # Core power per rank (mW)
system.mem_ctrls.dram.rank1.totalIdleTime            0                       # Total Idle time Per DRAM Rank
system.mem_ctrls.dram.rank1.pwrStateTime::IDLE      1073000                       # Time in different power states
system.mem_ctrls.dram.rank1.pwrStateTime::REF      1040000                       # Time in different power states
system.mem_ctrls.dram.rank1.pwrStateTime::SREF            0                       # Time in different power states
system.mem_ctrls.dram.rank1.pwrStateTime::PRE_PDN            0                       # Time in different power states
system.mem_ctrls.dram.rank1.pwrStateTime::ACT     36723000                       # Time in different power states
system.mem_ctrls.dram.rank1.pwrStateTime::ACT_PDN            0                       # Time in different power states
system.mem_ctrls.power_state.pwrStateResidencyTicks::UNDEFINED     38836000                       # Cumulative time (in ticks) in various power states
system.membus.trans_dist::ReadResp                471                       # Transaction distribution
system.membus.trans_dist::WritebackClean           58                       # Transaction distribution
system.membus.trans_dist::ReadExReq                70                       # Transaction distribution
system.membus.trans_dist::ReadExResp               70                       # Transaction distribution
system.membus.trans_dist::ReadCleanReq            364                       # Transaction distribution
system.membus.trans_dist::ReadSharedReq           107                       # Transaction distribution
system.membus.pkt_count_system.cpu.icache.mem_side_port::system.mem_ctrls.port          786                       # Packet count per connected requestor and responder (bytes)
system.membus.pkt_count_system.cpu.dcache.mem_side_port::system.mem_ctrls.port          354                       # Packet count per connected requestor and responder (bytes)
system.membus.pkt_count::total                   1140                       # Packet count per connected requestor and responder (bytes)
system.membus.pkt_size_system.cpu.icache.mem_side_port::system.mem_ctrls.port        27008                       # Cumulative packet size per connected requestor and responder (bytes)
system.membus.pkt_size_system.cpu.dcache.mem_side_port::system.mem_ctrls.port        11328                       # Cumulative packet size per connected requestor and responder (bytes)
system.membus.pkt_size::total                   38336                       # Cumulative packet size per connected requestor and responder (bytes)
system.membus.snoops                                0                       # Total snoops (count)
system.membus.snoopTraffic                          0                       # Total snoop traffic (bytes)
system.membus.snoop_fanout::samples               541                       # Request fanout histogram
system.membus.snoop_fanout::mean             0.044362                       # Request fanout histogram
system.membus.snoop_fanout::stdev            0.206089                       # Request fanout histogram
system.membus.snoop_fanout::underflows              0      0.00%      0.00% # Request fanout histogram
system.membus.snoop_fanout::0                     517     95.56%     95.56% # Request fanout histogram
system.membus.snoop_fanout::1                      24      4.44%    100.00% # Request fanout histogram
system.membus.snoop_fanout::2                       0      0.00%    100.00% # Request fanout histogram
system.membus.snoop_fanout::overflows               0      0.00%    100.00% # Request fanout histogram
system.membus.snoop_fanout::min_value               0                       # Request fanout histogram
system.membus.snoop_fanout::max_value               1                       # Request fanout histogram
system.membus.snoop_fanout::total                 541                       # Request fanout histogram
system.membus.power_state.pwrStateResidencyTicks::UNDEFINED     38836000                       # Cumulative time (in ticks) in various power states
system.membus.reqLayer0.occupancy             2098000                       # Layer occupancy (ticks)
system.membus.reqLayer0.utilization               5.4                       # Layer utilization (%)
system.membus.respLayer1.occupancy            4086999                       # Layer occupancy (ticks)
system.membus.respLayer1.utilization             10.5                       # Layer utilization (%)
system.membus.respLayer2.occupancy            1979250                       # Layer occupancy (ticks)
system.membus.respLayer2.utilization              5.1                       # Layer utilization (%)
system.voltage_domain.voltage                       1                       # Voltage in Volts

---------- End Simulation Statistics   ----------
