
---------- Begin Simulation Statistics ----------
final_tick                               165522023000                       # Number of ticks from beginning of simulation (restored from checkpoints and never reset)
host_inst_rate                                 244059                       # Simulator instruction rate (inst/s)
host_mem_usage                                 662188                       # Number of bytes of host memory used
host_op_rate                                   244538                       # Simulator op (including micro ops) rate (op/s)
host_seconds                                   409.74                       # Real time elapsed on the host
host_tick_rate                              403971720                       # Simulator tick rate (ticks/s)
sim_freq                                 1000000000000                       # Frequency of simulated ticks
sim_insts                                   100000001                       # Number of instructions simulated
sim_ops                                     100196356                       # Number of ops (including micro ops) simulated
sim_seconds                                  0.165522                       # Number of seconds simulated
sim_ticks                                165522023000                       # Number of ticks simulated
system.cpu.committedInsts                   100000001                       # Number of instructions committed
system.cpu.committedOps                     100196356                       # Number of ops (including micro ops) committed
system.cpu.cpi                               1.655220                       # CPI: cycles per instruction
system.cpu.discardedOps                        189503                       # Number of ops (including micro ops) which were discarded before commit
system.cpu.idleCycles                        32645863                       # Total number of cycles that the object has spent stopped
system.cpu.ipc                               0.604149                       # IPC: instructions per cycle
system.cpu.numCycles                        165522023                       # number of cpu cycles simulated
system.cpu.numFetchSuspends                         0                       # Number of times Execute suspended instruction fetching
system.cpu.numWorkItemsCompleted                    0                       # number of work items this cpu completed
system.cpu.numWorkItemsStarted                      0                       # number of work items this cpu started
system.cpu.op_class_0::No_OpClass                   0      0.00%      0.00% # Class of committed instruction
system.cpu.op_class_0::IntAlu                46526863     46.44%     46.44% # Class of committed instruction
system.cpu.op_class_0::IntMult                  20723      0.02%     46.46% # Class of committed instruction
system.cpu.op_class_0::IntDiv                       0      0.00%     46.46% # Class of committed instruction
system.cpu.op_class_0::FloatAdd                     0      0.00%     46.46% # Class of committed instruction
system.cpu.op_class_0::FloatCmp                     0      0.00%     46.46% # Class of committed instruction
system.cpu.op_class_0::FloatCvt                     0      0.00%     46.46% # Class of committed instruction
system.cpu.op_class_0::FloatMult                    0      0.00%     46.46% # Class of committed instruction
system.cpu.op_class_0::FloatMultAcc                 0      0.00%     46.46% # Class of committed instruction
system.cpu.op_class_0::FloatDiv                     0      0.00%     46.46% # Class of committed instruction
system.cpu.op_class_0::FloatMisc                    0      0.00%     46.46% # Class of committed instruction
system.cpu.op_class_0::FloatSqrt                    0      0.00%     46.46% # Class of committed instruction
system.cpu.op_class_0::SimdAdd                      0      0.00%     46.46% # Class of committed instruction
system.cpu.op_class_0::SimdAddAcc                   0      0.00%     46.46% # Class of committed instruction
system.cpu.op_class_0::SimdAlu                      0      0.00%     46.46% # Class of committed instruction
system.cpu.op_class_0::SimdCmp                      0      0.00%     46.46% # Class of committed instruction
system.cpu.op_class_0::SimdCvt                      0      0.00%     46.46% # Class of committed instruction
system.cpu.op_class_0::SimdMisc                     0      0.00%     46.46% # Class of committed instruction
system.cpu.op_class_0::SimdMult                     0      0.00%     46.46% # Class of committed instruction
system.cpu.op_class_0::SimdMultAcc                  0      0.00%     46.46% # Class of committed instruction
system.cpu.op_class_0::SimdShift                    0      0.00%     46.46% # Class of committed instruction
system.cpu.op_class_0::SimdShiftAcc                 0      0.00%     46.46% # Class of committed instruction
system.cpu.op_class_0::SimdDiv                      0      0.00%     46.46% # Class of committed instruction
system.cpu.op_class_0::SimdSqrt                     0      0.00%     46.46% # Class of committed instruction
system.cpu.op_class_0::SimdFloatAdd                 0      0.00%     46.46% # Class of committed instruction
system.cpu.op_class_0::SimdFloatAlu                 0      0.00%     46.46% # Class of committed instruction
system.cpu.op_class_0::SimdFloatCmp                 0      0.00%     46.46% # Class of committed instruction
system.cpu.op_class_0::SimdFloatCvt                 0      0.00%     46.46% # Class of committed instruction
system.cpu.op_class_0::SimdFloatDiv                 0      0.00%     46.46% # Class of committed instruction
system.cpu.op_class_0::SimdFloatMisc               18      0.00%     46.46% # Class of committed instruction
system.cpu.op_class_0::SimdFloatMult                0      0.00%     46.46% # Class of committed instruction
system.cpu.op_class_0::SimdFloatMultAcc             0      0.00%     46.46% # Class of committed instruction
system.cpu.op_class_0::SimdFloatSqrt                0      0.00%     46.46% # Class of committed instruction
system.cpu.op_class_0::SimdReduceAdd                0      0.00%     46.46% # Class of committed instruction
system.cpu.op_class_0::SimdReduceAlu                0      0.00%     46.46% # Class of committed instruction
system.cpu.op_class_0::SimdReduceCmp                0      0.00%     46.46% # Class of committed instruction
system.cpu.op_class_0::SimdFloatReduceAdd            0      0.00%     46.46% # Class of committed instruction
system.cpu.op_class_0::SimdFloatReduceCmp            0      0.00%     46.46% # Class of committed instruction
system.cpu.op_class_0::SimdAes                      0      0.00%     46.46% # Class of committed instruction
system.cpu.op_class_0::SimdAesMix                   0      0.00%     46.46% # Class of committed instruction
system.cpu.op_class_0::SimdSha1Hash                 0      0.00%     46.46% # Class of committed instruction
system.cpu.op_class_0::SimdSha1Hash2                0      0.00%     46.46% # Class of committed instruction
system.cpu.op_class_0::SimdSha256Hash               0      0.00%     46.46% # Class of committed instruction
system.cpu.op_class_0::SimdSha256Hash2              0      0.00%     46.46% # Class of committed instruction
system.cpu.op_class_0::SimdShaSigma2                0      0.00%     46.46% # Class of committed instruction
system.cpu.op_class_0::SimdShaSigma3                0      0.00%     46.46% # Class of committed instruction
system.cpu.op_class_0::SimdPredAlu                  0      0.00%     46.46% # Class of committed instruction
system.cpu.op_class_0::MemRead               42690537     42.61%     89.06% # Class of committed instruction
system.cpu.op_class_0::MemWrite              10958215     10.94%    100.00% # Class of committed instruction
system.cpu.op_class_0::FloatMemRead                 0      0.00%    100.00% # Class of committed instruction
system.cpu.op_class_0::FloatMemWrite                0      0.00%    100.00% # Class of committed instruction
system.cpu.op_class_0::IprAccess                    0      0.00%    100.00% # Class of committed instruction
system.cpu.op_class_0::InstPrefetch                 0      0.00%    100.00% # Class of committed instruction
system.cpu.op_class_0::total                100196356                       # Class of committed instruction
system.cpu.tickCycles                       132876160                       # Number of cycles that the object actually ticked
system.cpu.workload.numSyscalls                    85                       # Number of system calls
system.membus.snoop_filter.hit_multi_requests            0                       # Number of requests hitting in the snoop filter with multiple (>1) holders of the requested data.
system.membus.snoop_filter.hit_multi_snoops            0                       # Number of snoops hitting in the snoop filter with multiple (>1) holders of the requested data.
system.membus.snoop_filter.hit_single_requests       213190                       # Number of requests hitting in the snoop filter with a single holder of the requested data.
system.membus.snoop_filter.hit_single_snoops            0                       # Number of snoops hitting in the snoop filter with a single holder of the requested data.
system.membus.snoop_filter.tot_requests        443321                       # Total number of requests made to the snoop filter.
system.membus.snoop_filter.tot_snoops               0                       # Total number of snoops made to the snoop filter.
system.tol2bus.snoop_filter.hit_multi_requests          381                       # Number of requests hitting in the snoop filter with multiple (>1) holders of the requested data.
system.tol2bus.snoop_filter.hit_multi_snoops            2                       # Number of snoops hitting in the snoop filter with multiple (>1) holders of the requested data.
system.tol2bus.snoop_filter.hit_single_requests       874799                       # Number of requests hitting in the snoop filter with a single holder of the requested data.
system.tol2bus.snoop_filter.hit_single_snoops          671                       # Number of snoops hitting in the snoop filter with a single holder of the requested data.
system.tol2bus.snoop_filter.tot_requests      1750680                       # Total number of requests made to the snoop filter.
system.tol2bus.snoop_filter.tot_snoops            673                       # Total number of snoops made to the snoop filter.
system.clk_domain.clock                          1000                       # Clock period in ticks
system.cpu.branchPred.lookups                 4485793                       # Number of BP lookups
system.cpu.branchPred.condPredicted           3735477                       # Number of conditional branches predicted
system.cpu.branchPred.condIncorrect             80999                       # Number of conditional branches incorrect
system.cpu.branchPred.BTBLookups              2103845                       # Number of BTB lookups
system.cpu.branchPred.BTBHits                 2101835                       # Number of BTB hits
system.cpu.branchPred.BTBHitPct             99.904461                       # BTB Hit Percentage
system.cpu.branchPred.RASUsed                   65377                       # Number of times the RAS was used to get a target.
system.cpu.branchPred.RASIncorrect                 14                       # Number of incorrect RAS predictions.
system.cpu.branchPred.indirectLookups             693                       # Number of indirect predictor lookups.
system.cpu.branchPred.indirectHits                288                       # Number of indirect target hits.
system.cpu.branchPred.indirectMisses              405                       # Number of indirect misses.
system.cpu.branchPred.indirectMispredicted          171                       # Number of mispredicted indirect branches.
system.cpu.dcache.demand_hits::.cpu.data     51142995                       # number of demand (read+write) hits
system.cpu.dcache.demand_hits::total         51142995                       # number of demand (read+write) hits
system.cpu.dcache.overall_hits::.cpu.data     51143467                       # number of overall hits
system.cpu.dcache.overall_hits::total        51143467                       # number of overall hits
system.cpu.dcache.demand_misses::.cpu.data       920409                       # number of demand (read+write) misses
system.cpu.dcache.demand_misses::total         920409                       # number of demand (read+write) misses
system.cpu.dcache.overall_misses::.cpu.data       928356                       # number of overall misses
system.cpu.dcache.overall_misses::total        928356                       # number of overall misses
system.cpu.dcache.demand_miss_latency::.cpu.data  42828574000                       # number of demand (read+write) miss cycles
system.cpu.dcache.demand_miss_latency::total  42828574000                       # number of demand (read+write) miss cycles
system.cpu.dcache.overall_miss_latency::.cpu.data  42828574000                       # number of overall miss cycles
system.cpu.dcache.overall_miss_latency::total  42828574000                       # number of overall miss cycles
system.cpu.dcache.demand_accesses::.cpu.data     52063404                       # number of demand (read+write) accesses
system.cpu.dcache.demand_accesses::total     52063404                       # number of demand (read+write) accesses
system.cpu.dcache.overall_accesses::.cpu.data     52071823                       # number of overall (read+write) accesses
system.cpu.dcache.overall_accesses::total     52071823                       # number of overall (read+write) accesses
system.cpu.dcache.demand_miss_rate::.cpu.data     0.017679                       # miss rate for demand accesses
system.cpu.dcache.demand_miss_rate::total     0.017679                       # miss rate for demand accesses
system.cpu.dcache.overall_miss_rate::.cpu.data     0.017828                       # miss rate for overall accesses
system.cpu.dcache.overall_miss_rate::total     0.017828                       # miss rate for overall accesses
system.cpu.dcache.demand_avg_miss_latency::.cpu.data 46532.111268                       # average overall miss latency
system.cpu.dcache.demand_avg_miss_latency::total 46532.111268                       # average overall miss latency
system.cpu.dcache.overall_avg_miss_latency::.cpu.data 46133.782730                       # average overall miss latency
system.cpu.dcache.overall_avg_miss_latency::total 46133.782730                       # average overall miss latency
system.cpu.dcache.blocked_cycles::no_mshrs       103011                       # number of cycles access was blocked
system.cpu.dcache.blocked_cycles::no_targets            0                       # number of cycles access was blocked
system.cpu.dcache.blocked::no_mshrs              3309                       # number of cycles access was blocked
system.cpu.dcache.blocked::no_targets               0                       # number of cycles access was blocked
system.cpu.dcache.avg_blocked_cycles::no_mshrs    31.130553                       # average number of cycles each access was blocked
system.cpu.dcache.avg_blocked_cycles::no_targets          nan                       # average number of cycles each access was blocked
system.cpu.dcache.writebacks::.writebacks       787021                       # number of writebacks
system.cpu.dcache.writebacks::total            787021                       # number of writebacks
system.cpu.dcache.demand_mshr_hits::.cpu.data        53170                       # number of demand (read+write) MSHR hits
system.cpu.dcache.demand_mshr_hits::total        53170                       # number of demand (read+write) MSHR hits
system.cpu.dcache.overall_mshr_hits::.cpu.data        53170                       # number of overall MSHR hits
system.cpu.dcache.overall_mshr_hits::total        53170                       # number of overall MSHR hits
system.cpu.dcache.demand_mshr_misses::.cpu.data       867239                       # number of demand (read+write) MSHR misses
system.cpu.dcache.demand_mshr_misses::total       867239                       # number of demand (read+write) MSHR misses
system.cpu.dcache.overall_mshr_misses::.cpu.data       875182                       # number of overall MSHR misses
system.cpu.dcache.overall_mshr_misses::total       875182                       # number of overall MSHR misses
system.cpu.dcache.demand_mshr_miss_latency::.cpu.data  39501854000                       # number of demand (read+write) MSHR miss cycles
system.cpu.dcache.demand_mshr_miss_latency::total  39501854000                       # number of demand (read+write) MSHR miss cycles
system.cpu.dcache.overall_mshr_miss_latency::.cpu.data  40336680999                       # number of overall MSHR miss cycles
system.cpu.dcache.overall_mshr_miss_latency::total  40336680999                       # number of overall MSHR miss cycles
system.cpu.dcache.demand_mshr_miss_rate::.cpu.data     0.016657                       # mshr miss rate for demand accesses
system.cpu.dcache.demand_mshr_miss_rate::total     0.016657                       # mshr miss rate for demand accesses
system.cpu.dcache.overall_mshr_miss_rate::.cpu.data     0.016807                       # mshr miss rate for overall accesses
system.cpu.dcache.overall_mshr_miss_rate::total     0.016807                       # mshr miss rate for overall accesses
system.cpu.dcache.demand_avg_mshr_miss_latency::.cpu.data 45548.982460                       # average overall mshr miss latency
system.cpu.dcache.demand_avg_mshr_miss_latency::total 45548.982460                       # average overall mshr miss latency
system.cpu.dcache.overall_avg_mshr_miss_latency::.cpu.data 46089.477388                       # average overall mshr miss latency
system.cpu.dcache.overall_avg_mshr_miss_latency::total 46089.477388                       # average overall mshr miss latency
system.cpu.dcache.replacements                 874670                       # number of replacements
system.cpu.dcache.ReadReq_hits::.cpu.data     40588173                       # number of ReadReq hits
system.cpu.dcache.ReadReq_hits::total        40588173                       # number of ReadReq hits
system.cpu.dcache.ReadReq_misses::.cpu.data       526149                       # number of ReadReq misses
system.cpu.dcache.ReadReq_misses::total        526149                       # number of ReadReq misses
system.cpu.dcache.ReadReq_miss_latency::.cpu.data  19675058000                       # number of ReadReq miss cycles
system.cpu.dcache.ReadReq_miss_latency::total  19675058000                       # number of ReadReq miss cycles
system.cpu.dcache.ReadReq_accesses::.cpu.data     41114322                       # number of ReadReq accesses(hits+misses)
system.cpu.dcache.ReadReq_accesses::total     41114322                       # number of ReadReq accesses(hits+misses)
system.cpu.dcache.ReadReq_miss_rate::.cpu.data     0.012797                       # miss rate for ReadReq accesses
system.cpu.dcache.ReadReq_miss_rate::total     0.012797                       # miss rate for ReadReq accesses
system.cpu.dcache.ReadReq_avg_miss_latency::.cpu.data 37394.460505                       # average ReadReq miss latency
system.cpu.dcache.ReadReq_avg_miss_latency::total 37394.460505                       # average ReadReq miss latency
system.cpu.dcache.ReadReq_mshr_hits::.cpu.data          144                       # number of ReadReq MSHR hits
system.cpu.dcache.ReadReq_mshr_hits::total          144                       # number of ReadReq MSHR hits
system.cpu.dcache.ReadReq_mshr_misses::.cpu.data       526005                       # number of ReadReq MSHR misses
system.cpu.dcache.ReadReq_mshr_misses::total       526005                       # number of ReadReq MSHR misses
system.cpu.dcache.ReadReq_mshr_miss_latency::.cpu.data  18618185000                       # number of ReadReq MSHR miss cycles
system.cpu.dcache.ReadReq_mshr_miss_latency::total  18618185000                       # number of ReadReq MSHR miss cycles
system.cpu.dcache.ReadReq_mshr_miss_rate::.cpu.data     0.012794                       # mshr miss rate for ReadReq accesses
system.cpu.dcache.ReadReq_mshr_miss_rate::total     0.012794                       # mshr miss rate for ReadReq accesses
system.cpu.dcache.ReadReq_avg_mshr_miss_latency::.cpu.data 35395.452515                       # average ReadReq mshr miss latency
system.cpu.dcache.ReadReq_avg_mshr_miss_latency::total 35395.452515                       # average ReadReq mshr miss latency
system.cpu.dcache.WriteReq_hits::.cpu.data     10554822                       # number of WriteReq hits
system.cpu.dcache.WriteReq_hits::total       10554822                       # number of WriteReq hits
system.cpu.dcache.WriteReq_misses::.cpu.data       394260                       # number of WriteReq misses
system.cpu.dcache.WriteReq_misses::total       394260                       # number of WriteReq misses
system.cpu.dcache.WriteReq_miss_latency::.cpu.data  23153516000                       # number of WriteReq miss cycles
system.cpu.dcache.WriteReq_miss_latency::total  23153516000                       # number of WriteReq miss cycles
system.cpu.dcache.WriteReq_accesses::.cpu.data     10949082                       # number of WriteReq accesses(hits+misses)
system.cpu.dcache.WriteReq_accesses::total     10949082                       # number of WriteReq accesses(hits+misses)
system.cpu.dcache.WriteReq_miss_rate::.cpu.data     0.036008                       # miss rate for WriteReq accesses
system.cpu.dcache.WriteReq_miss_rate::total     0.036008                       # miss rate for WriteReq accesses
system.cpu.dcache.WriteReq_avg_miss_latency::.cpu.data 58726.515497                       # average WriteReq miss latency
system.cpu.dcache.WriteReq_avg_miss_latency::total 58726.515497                       # average WriteReq miss latency
system.cpu.dcache.WriteReq_mshr_hits::.cpu.data        53026                       # number of WriteReq MSHR hits
system.cpu.dcache.WriteReq_mshr_hits::total        53026                       # number of WriteReq MSHR hits
system.cpu.dcache.WriteReq_mshr_misses::.cpu.data       341234                       # number of WriteReq MSHR misses
system.cpu.dcache.WriteReq_mshr_misses::total       341234                       # number of WriteReq MSHR misses
system.cpu.dcache.WriteReq_mshr_miss_latency::.cpu.data  20883669000                       # number of WriteReq MSHR miss cycles
system.cpu.dcache.WriteReq_mshr_miss_latency::total  20883669000                       # number of WriteReq MSHR miss cycles
system.cpu.dcache.WriteReq_mshr_miss_rate::.cpu.data     0.031166                       # mshr miss rate for WriteReq accesses
system.cpu.dcache.WriteReq_mshr_miss_rate::total     0.031166                       # mshr miss rate for WriteReq accesses
system.cpu.dcache.WriteReq_avg_mshr_miss_latency::.cpu.data 61200.434306                       # average WriteReq mshr miss latency
system.cpu.dcache.WriteReq_avg_mshr_miss_latency::total 61200.434306                       # average WriteReq mshr miss latency
system.cpu.dcache.SoftPFReq_hits::.cpu.data          472                       # number of SoftPFReq hits
system.cpu.dcache.SoftPFReq_hits::total           472                       # number of SoftPFReq hits
system.cpu.dcache.SoftPFReq_misses::.cpu.data         7947                       # number of SoftPFReq misses
system.cpu.dcache.SoftPFReq_misses::total         7947                       # number of SoftPFReq misses
system.cpu.dcache.SoftPFReq_accesses::.cpu.data         8419                       # number of SoftPFReq accesses(hits+misses)
system.cpu.dcache.SoftPFReq_accesses::total         8419                       # number of SoftPFReq accesses(hits+misses)
system.cpu.dcache.SoftPFReq_miss_rate::.cpu.data     0.943936                       # miss rate for SoftPFReq accesses
system.cpu.dcache.SoftPFReq_miss_rate::total     0.943936                       # miss rate for SoftPFReq accesses
system.cpu.dcache.SoftPFReq_mshr_misses::.cpu.data         7943                       # number of SoftPFReq MSHR misses
system.cpu.dcache.SoftPFReq_mshr_misses::total         7943                       # number of SoftPFReq MSHR misses
system.cpu.dcache.SoftPFReq_mshr_miss_latency::.cpu.data    834826999                       # number of SoftPFReq MSHR miss cycles
system.cpu.dcache.SoftPFReq_mshr_miss_latency::total    834826999                       # number of SoftPFReq MSHR miss cycles
system.cpu.dcache.SoftPFReq_mshr_miss_rate::.cpu.data     0.943461                       # mshr miss rate for SoftPFReq accesses
system.cpu.dcache.SoftPFReq_mshr_miss_rate::total     0.943461                       # mshr miss rate for SoftPFReq accesses
system.cpu.dcache.SoftPFReq_avg_mshr_miss_latency::.cpu.data 105102.228251                       # average SoftPFReq mshr miss latency
system.cpu.dcache.SoftPFReq_avg_mshr_miss_latency::total 105102.228251                       # average SoftPFReq mshr miss latency
system.cpu.dcache.LoadLockedReq_hits::.cpu.data           38                       # number of LoadLockedReq hits
system.cpu.dcache.LoadLockedReq_hits::total           38                       # number of LoadLockedReq hits
system.cpu.dcache.LoadLockedReq_accesses::.cpu.data           38                       # number of LoadLockedReq accesses(hits+misses)
system.cpu.dcache.LoadLockedReq_accesses::total           38                       # number of LoadLockedReq accesses(hits+misses)
system.cpu.dcache.StoreCondReq_hits::.cpu.data           38                       # number of StoreCondReq hits
system.cpu.dcache.StoreCondReq_hits::total           38                       # number of StoreCondReq hits
system.cpu.dcache.StoreCondReq_accesses::.cpu.data           38                       # number of StoreCondReq accesses(hits+misses)
system.cpu.dcache.StoreCondReq_accesses::total           38                       # number of StoreCondReq accesses(hits+misses)
system.cpu.dcache.power_state.pwrStateResidencyTicks::UNDEFINED 165522023000                       # Cumulative time (in ticks) in various power states
system.cpu.dcache.tags.tagsinuse           507.488334                       # Cycle average of tags in use
system.cpu.dcache.tags.total_refs            52018725                       # Total number of references to valid blocks.
system.cpu.dcache.tags.sampled_refs            875182                       # Sample count of references to valid blocks.
system.cpu.dcache.tags.avg_refs             59.437608                       # Average number of references to valid blocks.
system.cpu.dcache.tags.warmup_cycle            223000                       # Cycle when the warmup percentage was hit.
system.cpu.dcache.tags.occ_blocks::.cpu.data   507.488334                       # Average occupied blocks per requestor
system.cpu.dcache.tags.occ_percent::.cpu.data     0.991188                       # Average percentage of cache occupancy
system.cpu.dcache.tags.occ_percent::total     0.991188                       # Average percentage of cache occupancy
system.cpu.dcache.tags.occ_task_id_blocks::1024          512                       # Occupied blocks per task id
system.cpu.dcache.tags.age_task_id_blocks_1024::0           32                       # Occupied blocks per task id
system.cpu.dcache.tags.age_task_id_blocks_1024::1          226                       # Occupied blocks per task id
system.cpu.dcache.tags.age_task_id_blocks_1024::2          253                       # Occupied blocks per task id
system.cpu.dcache.tags.age_task_id_blocks_1024::3            1                       # Occupied blocks per task id
system.cpu.dcache.tags.occ_task_id_percent::1024            1                       # Percentage of cache occupancy per task id
system.cpu.dcache.tags.tag_accesses         105018980                       # Number of tag accesses
system.cpu.dcache.tags.data_accesses        105018980                       # Number of data accesses
system.cpu.dcache.tags.power_state.pwrStateResidencyTicks::UNDEFINED 165522023000                       # Cumulative time (in ticks) in various power states
system.cpu.dtb.instHits                             0                       # ITB inst hits
system.cpu.dtb.instMisses                           0                       # ITB inst misses
system.cpu.dtb.readHits                             0                       # DTB read hits
system.cpu.dtb.readMisses                           0                       # DTB read misses
system.cpu.dtb.writeHits                            0                       # DTB write hits
system.cpu.dtb.writeMisses                          0                       # DTB write misses
system.cpu.dtb.inserts                              0                       # Number of times an entry is inserted into the TLB
system.cpu.dtb.flushTlb                             0                       # Number of times complete TLB was flushed
system.cpu.dtb.flushTlbMva                          0                       # Number of times TLB was flushed by MVA
system.cpu.dtb.flushTlbMvaAsid                      0                       # Number of times TLB was flushed by MVA & ASID
system.cpu.dtb.flushTlbAsid                         0                       # Number of times TLB was flushed by ASID
system.cpu.dtb.flushedEntries                       0                       # Number of entries that have been flushed from TLB
system.cpu.dtb.alignFaults                          0                       # Number of TLB faults due to alignment restrictions
system.cpu.dtb.prefetchFaults                       0                       # Number of TLB faults due to prefetch
system.cpu.dtb.domainFaults                         0                       # Number of TLB faults due to domain restrictions
system.cpu.dtb.permsFaults                          0                       # Number of TLB faults due to permissions restrictions
system.cpu.dtb.readAccesses                         0                       # DTB read accesses
system.cpu.dtb.writeAccesses                        0                       # DTB write accesses
system.cpu.dtb.instAccesses                         0                       # ITB inst accesses
system.cpu.dtb.hits                                 0                       # Total TLB (inst and data) hits
system.cpu.dtb.misses                               0                       # Total TLB (inst and data) misses
system.cpu.dtb.accesses                             0                       # Total TLB (inst and data) accesses
system.cpu.dtb.stage2_mmu.stage2_tlb.instHits            0                       # ITB inst hits
system.cpu.dtb.stage2_mmu.stage2_tlb.instMisses            0                       # ITB inst misses
system.cpu.dtb.stage2_mmu.stage2_tlb.readHits            0                       # DTB read hits
system.cpu.dtb.stage2_mmu.stage2_tlb.readMisses            0                       # DTB read misses
system.cpu.dtb.stage2_mmu.stage2_tlb.writeHits            0                       # DTB write hits
system.cpu.dtb.stage2_mmu.stage2_tlb.writeMisses            0                       # DTB write misses
system.cpu.dtb.stage2_mmu.stage2_tlb.inserts            0                       # Number of times an entry is inserted into the TLB
system.cpu.dtb.stage2_mmu.stage2_tlb.flushTlb            0                       # Number of times complete TLB was flushed
system.cpu.dtb.stage2_mmu.stage2_tlb.flushTlbMva            0                       # Number of times TLB was flushed by MVA
system.cpu.dtb.stage2_mmu.stage2_tlb.flushTlbMvaAsid            0                       # Number of times TLB was flushed by MVA & ASID
system.cpu.dtb.stage2_mmu.stage2_tlb.flushTlbAsid            0                       # Number of times TLB was flushed by ASID
system.cpu.dtb.stage2_mmu.stage2_tlb.flushedEntries            0                       # Number of entries that have been flushed from TLB
system.cpu.dtb.stage2_mmu.stage2_tlb.alignFaults            0                       # Number of TLB faults due to alignment restrictions
system.cpu.dtb.stage2_mmu.stage2_tlb.prefetchFaults            0                       # Number of TLB faults due to prefetch
system.cpu.dtb.stage2_mmu.stage2_tlb.domainFaults            0                       # Number of TLB faults due to domain restrictions
system.cpu.dtb.stage2_mmu.stage2_tlb.permsFaults            0                       # Number of TLB faults due to permissions restrictions
system.cpu.dtb.stage2_mmu.stage2_tlb.readAccesses            0                       # DTB read accesses
system.cpu.dtb.stage2_mmu.stage2_tlb.writeAccesses            0                       # DTB write accesses
system.cpu.dtb.stage2_mmu.stage2_tlb.instAccesses            0                       # ITB inst accesses
system.cpu.dtb.stage2_mmu.stage2_tlb.hits            0                       # Total TLB (inst and data) hits
system.cpu.dtb.stage2_mmu.stage2_tlb.misses            0                       # Total TLB (inst and data) misses
system.cpu.dtb.stage2_mmu.stage2_tlb.accesses            0                       # Total TLB (inst and data) accesses
system.cpu.dtb.stage2_mmu.stage2_tlb.walker.walks            0                       # Table walker walks requested
system.cpu.dtb.stage2_mmu.stage2_tlb.walker.requestOrigin_Requested::Data            0                       # Table walker requests started/completed, data/inst
system.cpu.dtb.stage2_mmu.stage2_tlb.walker.requestOrigin_Requested::Inst            0                       # Table walker requests started/completed, data/inst
system.cpu.dtb.stage2_mmu.stage2_tlb.walker.requestOrigin_Requested::total            0                       # Table walker requests started/completed, data/inst
system.cpu.dtb.stage2_mmu.stage2_tlb.walker.requestOrigin_Completed::Data            0                       # Table walker requests started/completed, data/inst
system.cpu.dtb.stage2_mmu.stage2_tlb.walker.requestOrigin_Completed::Inst            0                       # Table walker requests started/completed, data/inst
system.cpu.dtb.stage2_mmu.stage2_tlb.walker.requestOrigin_Completed::total            0                       # Table walker requests started/completed, data/inst
system.cpu.dtb.stage2_mmu.stage2_tlb.walker.requestOrigin::total            0                       # Table walker requests started/completed, data/inst
system.cpu.dtb.stage2_mmu.stage2_tlb.walker.power_state.pwrStateResidencyTicks::UNDEFINED 165522023000                       # Cumulative time (in ticks) in various power states
system.cpu.dtb.walker.walks                         0                       # Table walker walks requested
system.cpu.dtb.walker.requestOrigin_Requested::Data            0                       # Table walker requests started/completed, data/inst
system.cpu.dtb.walker.requestOrigin_Requested::Inst            0                       # Table walker requests started/completed, data/inst
system.cpu.dtb.walker.requestOrigin_Requested::total            0                       # Table walker requests started/completed, data/inst
system.cpu.dtb.walker.requestOrigin_Completed::Data            0                       # Table walker requests started/completed, data/inst
system.cpu.dtb.walker.requestOrigin_Completed::Inst            0                       # Table walker requests started/completed, data/inst
system.cpu.dtb.walker.requestOrigin_Completed::total            0                       # Table walker requests started/completed, data/inst
system.cpu.dtb.walker.requestOrigin::total            0                       # Table walker requests started/completed, data/inst
system.cpu.dtb.walker.power_state.pwrStateResidencyTicks::UNDEFINED 165522023000                       # Cumulative time (in ticks) in various power states
system.cpu.fetch2.intInstructions            42685900                       # Number of integer instructions successfully decoded
system.cpu.fetch2.fpInstructions                    0                       # Number of floating point instructions successfully decoded
system.cpu.fetch2.vecInstructions                   0                       # Number of SIMD instructions successfully decoded
system.cpu.fetch2.loadInstructions           43475087                       # Number of memory load instructions successfully decoded
system.cpu.fetch2.storeInstructions          11024942                       # Number of memory store instructions successfully decoded
system.cpu.fetch2.amoInstructions                   0                       # Number of memory atomic instructions successfully decoded
system.cpu.icache.demand_hits::.cpu.inst     10278225                       # number of demand (read+write) hits
system.cpu.icache.demand_hits::total         10278225                       # number of demand (read+write) hits
system.cpu.icache.overall_hits::.cpu.inst     10278225                       # number of overall hits
system.cpu.icache.overall_hits::total        10278225                       # number of overall hits
system.cpu.icache.demand_misses::.cpu.inst          700                       # number of demand (read+write) misses
system.cpu.icache.demand_misses::total            700                       # number of demand (read+write) misses
system.cpu.icache.overall_misses::.cpu.inst          700                       # number of overall misses
system.cpu.icache.overall_misses::total           700                       # number of overall misses
system.cpu.icache.demand_miss_latency::.cpu.inst     69140000                       # number of demand (read+write) miss cycles
system.cpu.icache.demand_miss_latency::total     69140000                       # number of demand (read+write) miss cycles
system.cpu.icache.overall_miss_latency::.cpu.inst     69140000                       # number of overall miss cycles
system.cpu.icache.overall_miss_latency::total     69140000                       # number of overall miss cycles
system.cpu.icache.demand_accesses::.cpu.inst     10278925                       # number of demand (read+write) accesses
system.cpu.icache.demand_accesses::total     10278925                       # number of demand (read+write) accesses
system.cpu.icache.overall_accesses::.cpu.inst     10278925                       # number of overall (read+write) accesses
system.cpu.icache.overall_accesses::total     10278925                       # number of overall (read+write) accesses
system.cpu.icache.demand_miss_rate::.cpu.inst     0.000068                       # miss rate for demand accesses
system.cpu.icache.demand_miss_rate::total     0.000068                       # miss rate for demand accesses
system.cpu.icache.overall_miss_rate::.cpu.inst     0.000068                       # miss rate for overall accesses
system.cpu.icache.overall_miss_rate::total     0.000068                       # miss rate for overall accesses
system.cpu.icache.demand_avg_miss_latency::.cpu.inst 98771.428571                       # average overall miss latency
system.cpu.icache.demand_avg_miss_latency::total 98771.428571                       # average overall miss latency
system.cpu.icache.overall_avg_miss_latency::.cpu.inst 98771.428571                       # average overall miss latency
system.cpu.icache.overall_avg_miss_latency::total 98771.428571                       # average overall miss latency
system.cpu.icache.blocked_cycles::no_mshrs            0                       # number of cycles access was blocked
system.cpu.icache.blocked_cycles::no_targets            0                       # number of cycles access was blocked
system.cpu.icache.blocked::no_mshrs                 0                       # number of cycles access was blocked
system.cpu.icache.blocked::no_targets               0                       # number of cycles access was blocked
system.cpu.icache.avg_blocked_cycles::no_mshrs          nan                       # average number of cycles each access was blocked
system.cpu.icache.avg_blocked_cycles::no_targets          nan                       # average number of cycles each access was blocked
system.cpu.icache.writebacks::.writebacks          128                       # number of writebacks
system.cpu.icache.writebacks::total               128                       # number of writebacks
system.cpu.icache.demand_mshr_misses::.cpu.inst          700                       # number of demand (read+write) MSHR misses
system.cpu.icache.demand_mshr_misses::total          700                       # number of demand (read+write) MSHR misses
system.cpu.icache.overall_mshr_misses::.cpu.inst          700                       # number of overall MSHR misses
system.cpu.icache.overall_mshr_misses::total          700                       # number of overall MSHR misses
system.cpu.icache.demand_mshr_miss_latency::.cpu.inst     67740000                       # number of demand (read+write) MSHR miss cycles
system.cpu.icache.demand_mshr_miss_latency::total     67740000                       # number of demand (read+write) MSHR miss cycles
system.cpu.icache.overall_mshr_miss_latency::.cpu.inst     67740000                       # number of overall MSHR miss cycles
system.cpu.icache.overall_mshr_miss_latency::total     67740000                       # number of overall MSHR miss cycles
system.cpu.icache.demand_mshr_miss_rate::.cpu.inst     0.000068                       # mshr miss rate for demand accesses
system.cpu.icache.demand_mshr_miss_rate::total     0.000068                       # mshr miss rate for demand accesses
system.cpu.icache.overall_mshr_miss_rate::.cpu.inst     0.000068                       # mshr miss rate for overall accesses
system.cpu.icache.overall_mshr_miss_rate::total     0.000068                       # mshr miss rate for overall accesses
system.cpu.icache.demand_avg_mshr_miss_latency::.cpu.inst 96771.428571                       # average overall mshr miss latency
system.cpu.icache.demand_avg_mshr_miss_latency::total 96771.428571                       # average overall mshr miss latency
system.cpu.icache.overall_avg_mshr_miss_latency::.cpu.inst 96771.428571                       # average overall mshr miss latency
system.cpu.icache.overall_avg_mshr_miss_latency::total 96771.428571                       # average overall mshr miss latency
system.cpu.icache.replacements                    128                       # number of replacements
system.cpu.icache.ReadReq_hits::.cpu.inst     10278225                       # number of ReadReq hits
system.cpu.icache.ReadReq_hits::total        10278225                       # number of ReadReq hits
system.cpu.icache.ReadReq_misses::.cpu.inst          700                       # number of ReadReq misses
system.cpu.icache.ReadReq_misses::total           700                       # number of ReadReq misses
system.cpu.icache.ReadReq_miss_latency::.cpu.inst     69140000                       # number of ReadReq miss cycles
system.cpu.icache.ReadReq_miss_latency::total     69140000                       # number of ReadReq miss cycles
system.cpu.icache.ReadReq_accesses::.cpu.inst     10278925                       # number of ReadReq accesses(hits+misses)
system.cpu.icache.ReadReq_accesses::total     10278925                       # number of ReadReq accesses(hits+misses)
system.cpu.icache.ReadReq_miss_rate::.cpu.inst     0.000068                       # miss rate for ReadReq accesses
system.cpu.icache.ReadReq_miss_rate::total     0.000068                       # miss rate for ReadReq accesses
system.cpu.icache.ReadReq_avg_miss_latency::.cpu.inst 98771.428571                       # average ReadReq miss latency
system.cpu.icache.ReadReq_avg_miss_latency::total 98771.428571                       # average ReadReq miss latency
system.cpu.icache.ReadReq_mshr_misses::.cpu.inst          700                       # number of ReadReq MSHR misses
system.cpu.icache.ReadReq_mshr_misses::total          700                       # number of ReadReq MSHR misses
system.cpu.icache.ReadReq_mshr_miss_latency::.cpu.inst     67740000                       # number of ReadReq MSHR miss cycles
system.cpu.icache.ReadReq_mshr_miss_latency::total     67740000                       # number of ReadReq MSHR miss cycles
system.cpu.icache.ReadReq_mshr_miss_rate::.cpu.inst     0.000068                       # mshr miss rate for ReadReq accesses
system.cpu.icache.ReadReq_mshr_miss_rate::total     0.000068                       # mshr miss rate for ReadReq accesses
system.cpu.icache.ReadReq_avg_mshr_miss_latency::.cpu.inst 96771.428571                       # average ReadReq mshr miss latency
system.cpu.icache.ReadReq_avg_mshr_miss_latency::total 96771.428571                       # average ReadReq mshr miss latency
system.cpu.icache.power_state.pwrStateResidencyTicks::UNDEFINED 165522023000                       # Cumulative time (in ticks) in various power states
system.cpu.icache.tags.tagsinuse           462.715835                       # Cycle average of tags in use
system.cpu.icache.tags.total_refs            10278925                       # Total number of references to valid blocks.
system.cpu.icache.tags.sampled_refs               700                       # Sample count of references to valid blocks.
system.cpu.icache.tags.avg_refs          14684.178571                       # Average number of references to valid blocks.
system.cpu.icache.tags.warmup_cycle            108000                       # Cycle when the warmup percentage was hit.
system.cpu.icache.tags.occ_blocks::.cpu.inst   462.715835                       # Average occupied blocks per requestor
system.cpu.icache.tags.occ_percent::.cpu.inst     0.451871                       # Average percentage of cache occupancy
system.cpu.icache.tags.occ_percent::total     0.451871                       # Average percentage of cache occupancy
system.cpu.icache.tags.occ_task_id_blocks::1024          572                       # Occupied blocks per task id
system.cpu.icache.tags.age_task_id_blocks_1024::4          572                       # Occupied blocks per task id
system.cpu.icache.tags.occ_task_id_percent::1024     0.558594                       # Percentage of cache occupancy per task id
system.cpu.icache.tags.tag_accesses          20558550                       # Number of tag accesses
system.cpu.icache.tags.data_accesses         20558550                       # Number of data accesses
system.cpu.icache.tags.power_state.pwrStateResidencyTicks::UNDEFINED 165522023000                       # Cumulative time (in ticks) in various power states
system.cpu.itb.instHits                             0                       # ITB inst hits
system.cpu.itb.instMisses                           0                       # ITB inst misses
system.cpu.itb.readHits                             0                       # DTB read hits
system.cpu.itb.readMisses                           0                       # DTB read misses
system.cpu.itb.writeHits                            0                       # DTB write hits
system.cpu.itb.writeMisses                          0                       # DTB write misses
system.cpu.itb.inserts                              0                       # Number of times an entry is inserted into the TLB
system.cpu.itb.flushTlb                             0                       # Number of times complete TLB was flushed
system.cpu.itb.flushTlbMva                          0                       # Number of times TLB was flushed by MVA
system.cpu.itb.flushTlbMvaAsid                      0                       # Number of times TLB was flushed by MVA & ASID
system.cpu.itb.flushTlbAsid                         0                       # Number of times TLB was flushed by ASID
system.cpu.itb.flushedEntries                       0                       # Number of entries that have been flushed from TLB
system.cpu.itb.alignFaults                          0                       # Number of TLB faults due to alignment restrictions
system.cpu.itb.prefetchFaults                       0                       # Number of TLB faults due to prefetch
system.cpu.itb.domainFaults                         0                       # Number of TLB faults due to domain restrictions
system.cpu.itb.permsFaults                          0                       # Number of TLB faults due to permissions restrictions
system.cpu.itb.readAccesses                         0                       # DTB read accesses
system.cpu.itb.writeAccesses                        0                       # DTB write accesses
system.cpu.itb.instAccesses                         0                       # ITB inst accesses
system.cpu.itb.hits                                 0                       # Total TLB (inst and data) hits
system.cpu.itb.misses                               0                       # Total TLB (inst and data) misses
system.cpu.itb.accesses                             0                       # Total TLB (inst and data) accesses
system.cpu.itb.stage2_mmu.stage2_tlb.instHits            0                       # ITB inst hits
system.cpu.itb.stage2_mmu.stage2_tlb.instMisses            0                       # ITB inst misses
system.cpu.itb.stage2_mmu.stage2_tlb.readHits            0                       # DTB read hits
system.cpu.itb.stage2_mmu.stage2_tlb.readMisses            0                       # DTB read misses
system.cpu.itb.stage2_mmu.stage2_tlb.writeHits            0                       # DTB write hits
system.cpu.itb.stage2_mmu.stage2_tlb.writeMisses            0                       # DTB write misses
system.cpu.itb.stage2_mmu.stage2_tlb.inserts            0                       # Number of times an entry is inserted into the TLB
system.cpu.itb.stage2_mmu.stage2_tlb.flushTlb            0                       # Number of times complete TLB was flushed
system.cpu.itb.stage2_mmu.stage2_tlb.flushTlbMva            0                       # Number of times TLB was flushed by MVA
system.cpu.itb.stage2_mmu.stage2_tlb.flushTlbMvaAsid            0                       # Number of times TLB was flushed by MVA & ASID
system.cpu.itb.stage2_mmu.stage2_tlb.flushTlbAsid            0                       # Number of times TLB was flushed by ASID
system.cpu.itb.stage2_mmu.stage2_tlb.flushedEntries            0                       # Number of entries that have been flushed from TLB
system.cpu.itb.stage2_mmu.stage2_tlb.alignFaults            0                       # Number of TLB faults due to alignment restrictions
system.cpu.itb.stage2_mmu.stage2_tlb.prefetchFaults            0                       # Number of TLB faults due to prefetch
system.cpu.itb.stage2_mmu.stage2_tlb.domainFaults            0                       # Number of TLB faults due to domain restrictions
system.cpu.itb.stage2_mmu.stage2_tlb.permsFaults            0                       # Number of TLB faults due to permissions restrictions
system.cpu.itb.stage2_mmu.stage2_tlb.readAccesses            0                       # DTB read accesses
system.cpu.itb.stage2_mmu.stage2_tlb.writeAccesses            0                       # DTB write accesses
system.cpu.itb.stage2_mmu.stage2_tlb.instAccesses            0                       # ITB inst accesses
system.cpu.itb.stage2_mmu.stage2_tlb.hits            0                       # Total TLB (inst and data) hits
system.cpu.itb.stage2_mmu.stage2_tlb.misses            0                       # Total TLB (inst and data) misses
system.cpu.itb.stage2_mmu.stage2_tlb.accesses            0                       # Total TLB (inst and data) accesses
system.cpu.itb.stage2_mmu.stage2_tlb.walker.walks            0                       # Table walker walks requested
system.cpu.itb.stage2_mmu.stage2_tlb.walker.requestOrigin_Requested::Data            0                       # Table walker requests started/completed, data/inst
system.cpu.itb.stage2_mmu.stage2_tlb.walker.requestOrigin_Requested::Inst            0                       # Table walker requests started/completed, data/inst
system.cpu.itb.stage2_mmu.stage2_tlb.walker.requestOrigin_Requested::total            0                       # Table walker requests started/completed, data/inst
system.cpu.itb.stage2_mmu.stage2_tlb.walker.requestOrigin_Completed::Data            0                       # Table walker requests started/completed, data/inst
system.cpu.itb.stage2_mmu.stage2_tlb.walker.requestOrigin_Completed::Inst            0                       # Table walker requests started/completed, data/inst
system.cpu.itb.stage2_mmu.stage2_tlb.walker.requestOrigin_Completed::total            0                       # Table walker requests started/completed, data/inst
system.cpu.itb.stage2_mmu.stage2_tlb.walker.requestOrigin::total            0                       # Table walker requests started/completed, data/inst
system.cpu.itb.stage2_mmu.stage2_tlb.walker.power_state.pwrStateResidencyTicks::UNDEFINED 165522023000                       # Cumulative time (in ticks) in various power states
system.cpu.itb.walker.walks                         0                       # Table walker walks requested
system.cpu.itb.walker.requestOrigin_Requested::Data            0                       # Table walker requests started/completed, data/inst
system.cpu.itb.walker.requestOrigin_Requested::Inst            0                       # Table walker requests started/completed, data/inst
system.cpu.itb.walker.requestOrigin_Requested::total            0                       # Table walker requests started/completed, data/inst
system.cpu.itb.walker.requestOrigin_Completed::Data            0                       # Table walker requests started/completed, data/inst
system.cpu.itb.walker.requestOrigin_Completed::Inst            0                       # Table walker requests started/completed, data/inst
system.cpu.itb.walker.requestOrigin_Completed::total            0                       # Table walker requests started/completed, data/inst
system.cpu.itb.walker.requestOrigin::total            0                       # Table walker requests started/completed, data/inst
system.cpu.itb.walker.power_state.pwrStateResidencyTicks::UNDEFINED 165522023000                       # Cumulative time (in ticks) in various power states
system.cpu.power_state.pwrStateResidencyTicks::ON 165522023000                       # Cumulative time (in ticks) in various power states
system.cpu.thread_0.numInsts                100000001                       # Number of Instructions committed
system.cpu.thread_0.numOps                  100196356                       # Number of Ops committed
system.cpu.thread_0.numMemRefs                      0                       # Number of Memory References
system.cpu_clk_domain.clock                      1000                       # Clock period in ticks
system.cpu_voltage_domain.voltage                   1                       # Voltage in Volts
system.l2.demand_hits::.cpu.inst                   43                       # number of demand (read+write) hits
system.l2.demand_hits::.cpu.data               645695                       # number of demand (read+write) hits
system.l2.demand_hits::total                   645738                       # number of demand (read+write) hits
system.l2.overall_hits::.cpu.inst                  43                       # number of overall hits
system.l2.overall_hits::.cpu.data              645695                       # number of overall hits
system.l2.overall_hits::total                  645738                       # number of overall hits
system.l2.demand_misses::.cpu.inst                657                       # number of demand (read+write) misses
system.l2.demand_misses::.cpu.data             229487                       # number of demand (read+write) misses
system.l2.demand_misses::total                 230144                       # number of demand (read+write) misses
system.l2.overall_misses::.cpu.inst               657                       # number of overall misses
system.l2.overall_misses::.cpu.data            229487                       # number of overall misses
system.l2.overall_misses::total                230144                       # number of overall misses
system.l2.demand_miss_latency::.cpu.inst     64699000                       # number of demand (read+write) miss cycles
system.l2.demand_miss_latency::.cpu.data  24125055000                       # number of demand (read+write) miss cycles
system.l2.demand_miss_latency::total      24189754000                       # number of demand (read+write) miss cycles
system.l2.overall_miss_latency::.cpu.inst     64699000                       # number of overall miss cycles
system.l2.overall_miss_latency::.cpu.data  24125055000                       # number of overall miss cycles
system.l2.overall_miss_latency::total     24189754000                       # number of overall miss cycles
system.l2.demand_accesses::.cpu.inst              700                       # number of demand (read+write) accesses
system.l2.demand_accesses::.cpu.data           875182                       # number of demand (read+write) accesses
system.l2.demand_accesses::total               875882                       # number of demand (read+write) accesses
system.l2.overall_accesses::.cpu.inst             700                       # number of overall (read+write) accesses
system.l2.overall_accesses::.cpu.data          875182                       # number of overall (read+write) accesses
system.l2.overall_accesses::total              875882                       # number of overall (read+write) accesses
system.l2.demand_miss_rate::.cpu.inst        0.938571                       # miss rate for demand accesses
system.l2.demand_miss_rate::.cpu.data        0.262216                       # miss rate for demand accesses
system.l2.demand_miss_rate::total            0.262757                       # miss rate for demand accesses
system.l2.overall_miss_rate::.cpu.inst       0.938571                       # miss rate for overall accesses
system.l2.overall_miss_rate::.cpu.data       0.262216                       # miss rate for overall accesses
system.l2.overall_miss_rate::total           0.262757                       # miss rate for overall accesses
system.l2.demand_avg_miss_latency::.cpu.inst 98476.407915                       # average overall miss latency
system.l2.demand_avg_miss_latency::.cpu.data 105126.020210                       # average overall miss latency
system.l2.demand_avg_miss_latency::total 105107.037333                       # average overall miss latency
system.l2.overall_avg_miss_latency::.cpu.inst 98476.407915                       # average overall miss latency
system.l2.overall_avg_miss_latency::.cpu.data 105126.020210                       # average overall miss latency
system.l2.overall_avg_miss_latency::total 105107.037333                       # average overall miss latency
system.l2.blocked_cycles::no_mshrs                  0                       # number of cycles access was blocked
system.l2.blocked_cycles::no_targets                0                       # number of cycles access was blocked
system.l2.blocked::no_mshrs                         0                       # number of cycles access was blocked
system.l2.blocked::no_targets                       0                       # number of cycles access was blocked
system.l2.avg_blocked_cycles::no_mshrs            nan                       # average number of cycles each access was blocked
system.l2.avg_blocked_cycles::no_targets          nan                       # average number of cycles each access was blocked
system.l2.writebacks::.writebacks              143204                       # number of writebacks
system.l2.writebacks::total                    143204                       # number of writebacks
system.l2.demand_mshr_hits::.cpu.data               6                       # number of demand (read+write) MSHR hits
system.l2.demand_mshr_hits::total                   6                       # number of demand (read+write) MSHR hits
system.l2.overall_mshr_hits::.cpu.data              6                       # number of overall MSHR hits
system.l2.overall_mshr_hits::total                  6                       # number of overall MSHR hits
system.l2.demand_mshr_misses::.cpu.inst           657                       # number of demand (read+write) MSHR misses
system.l2.demand_mshr_misses::.cpu.data        229481                       # number of demand (read+write) MSHR misses
system.l2.demand_mshr_misses::total            230138                       # number of demand (read+write) MSHR misses
system.l2.overall_mshr_misses::.cpu.inst          657                       # number of overall MSHR misses
system.l2.overall_mshr_misses::.cpu.data       229481                       # number of overall MSHR misses
system.l2.overall_mshr_misses::total           230138                       # number of overall MSHR misses
system.l2.demand_mshr_miss_latency::.cpu.inst     51559000                       # number of demand (read+write) MSHR miss cycles
system.l2.demand_mshr_miss_latency::.cpu.data  19534975000                       # number of demand (read+write) MSHR miss cycles
system.l2.demand_mshr_miss_latency::total  19586534000                       # number of demand (read+write) MSHR miss cycles
system.l2.overall_mshr_miss_latency::.cpu.inst     51559000                       # number of overall MSHR miss cycles
system.l2.overall_mshr_miss_latency::.cpu.data  19534975000                       # number of overall MSHR miss cycles
system.l2.overall_mshr_miss_latency::total  19586534000                       # number of overall MSHR miss cycles
system.l2.demand_mshr_miss_rate::.cpu.inst     0.938571                       # mshr miss rate for demand accesses
system.l2.demand_mshr_miss_rate::.cpu.data     0.262209                       # mshr miss rate for demand accesses
system.l2.demand_mshr_miss_rate::total       0.262750                       # mshr miss rate for demand accesses
system.l2.overall_mshr_miss_rate::.cpu.inst     0.938571                       # mshr miss rate for overall accesses
system.l2.overall_mshr_miss_rate::.cpu.data     0.262209                       # mshr miss rate for overall accesses
system.l2.overall_mshr_miss_rate::total      0.262750                       # mshr miss rate for overall accesses
system.l2.demand_avg_mshr_miss_latency::.cpu.inst 78476.407915                       # average overall mshr miss latency
system.l2.demand_avg_mshr_miss_latency::.cpu.data 85126.764307                       # average overall mshr miss latency
system.l2.demand_avg_mshr_miss_latency::total 85107.778811                       # average overall mshr miss latency
system.l2.overall_avg_mshr_miss_latency::.cpu.inst 78476.407915                       # average overall mshr miss latency
system.l2.overall_avg_mshr_miss_latency::.cpu.data 85126.764307                       # average overall mshr miss latency
system.l2.overall_avg_mshr_miss_latency::total 85107.778811                       # average overall mshr miss latency
system.l2.replacements                         213856                       # number of replacements
system.l2.WritebackDirty_hits::.writebacks       787021                       # number of WritebackDirty hits
system.l2.WritebackDirty_hits::total           787021                       # number of WritebackDirty hits
system.l2.WritebackDirty_accesses::.writebacks       787021                       # number of WritebackDirty accesses(hits+misses)
system.l2.WritebackDirty_accesses::total       787021                       # number of WritebackDirty accesses(hits+misses)
system.l2.WritebackClean_hits::.writebacks          123                       # number of WritebackClean hits
system.l2.WritebackClean_hits::total              123                       # number of WritebackClean hits
system.l2.WritebackClean_accesses::.writebacks          123                       # number of WritebackClean accesses(hits+misses)
system.l2.WritebackClean_accesses::total          123                       # number of WritebackClean accesses(hits+misses)
system.l2.ReadExReq_hits::.cpu.data            193883                       # number of ReadExReq hits
system.l2.ReadExReq_hits::total                193883                       # number of ReadExReq hits
system.l2.ReadExReq_misses::.cpu.data          147351                       # number of ReadExReq misses
system.l2.ReadExReq_misses::total              147351                       # number of ReadExReq misses
system.l2.ReadExReq_miss_latency::.cpu.data  15773686000                       # number of ReadExReq miss cycles
system.l2.ReadExReq_miss_latency::total   15773686000                       # number of ReadExReq miss cycles
system.l2.ReadExReq_accesses::.cpu.data        341234                       # number of ReadExReq accesses(hits+misses)
system.l2.ReadExReq_accesses::total            341234                       # number of ReadExReq accesses(hits+misses)
system.l2.ReadExReq_miss_rate::.cpu.data     0.431818                       # miss rate for ReadExReq accesses
system.l2.ReadExReq_miss_rate::total         0.431818                       # miss rate for ReadExReq accesses
system.l2.ReadExReq_avg_miss_latency::.cpu.data 107048.381076                       # average ReadExReq miss latency
system.l2.ReadExReq_avg_miss_latency::total 107048.381076                       # average ReadExReq miss latency
system.l2.ReadExReq_mshr_misses::.cpu.data       147351                       # number of ReadExReq MSHR misses
system.l2.ReadExReq_mshr_misses::total         147351                       # number of ReadExReq MSHR misses
system.l2.ReadExReq_mshr_miss_latency::.cpu.data  12826666000                       # number of ReadExReq MSHR miss cycles
system.l2.ReadExReq_mshr_miss_latency::total  12826666000                       # number of ReadExReq MSHR miss cycles
system.l2.ReadExReq_mshr_miss_rate::.cpu.data     0.431818                       # mshr miss rate for ReadExReq accesses
system.l2.ReadExReq_mshr_miss_rate::total     0.431818                       # mshr miss rate for ReadExReq accesses
system.l2.ReadExReq_avg_mshr_miss_latency::.cpu.data 87048.381076                       # average ReadExReq mshr miss latency
system.l2.ReadExReq_avg_mshr_miss_latency::total 87048.381076                       # average ReadExReq mshr miss latency
system.l2.ReadCleanReq_hits::.cpu.inst             43                       # number of ReadCleanReq hits
system.l2.ReadCleanReq_hits::total                 43                       # number of ReadCleanReq hits
system.l2.ReadCleanReq_misses::.cpu.inst          657                       # number of ReadCleanReq misses
system.l2.ReadCleanReq_misses::total              657                       # number of ReadCleanReq misses
system.l2.ReadCleanReq_miss_latency::.cpu.inst     64699000                       # number of ReadCleanReq miss cycles
system.l2.ReadCleanReq_miss_latency::total     64699000                       # number of ReadCleanReq miss cycles
system.l2.ReadCleanReq_accesses::.cpu.inst          700                       # number of ReadCleanReq accesses(hits+misses)
system.l2.ReadCleanReq_accesses::total            700                       # number of ReadCleanReq accesses(hits+misses)
system.l2.ReadCleanReq_miss_rate::.cpu.inst     0.938571                       # miss rate for ReadCleanReq accesses
system.l2.ReadCleanReq_miss_rate::total      0.938571                       # miss rate for ReadCleanReq accesses
system.l2.ReadCleanReq_avg_miss_latency::.cpu.inst 98476.407915                       # average ReadCleanReq miss latency
system.l2.ReadCleanReq_avg_miss_latency::total 98476.407915                       # average ReadCleanReq miss latency
system.l2.ReadCleanReq_mshr_misses::.cpu.inst          657                       # number of ReadCleanReq MSHR misses
system.l2.ReadCleanReq_mshr_misses::total          657                       # number of ReadCleanReq MSHR misses
system.l2.ReadCleanReq_mshr_miss_latency::.cpu.inst     51559000                       # number of ReadCleanReq MSHR miss cycles
system.l2.ReadCleanReq_mshr_miss_latency::total     51559000                       # number of ReadCleanReq MSHR miss cycles
system.l2.ReadCleanReq_mshr_miss_rate::.cpu.inst     0.938571                       # mshr miss rate for ReadCleanReq accesses
system.l2.ReadCleanReq_mshr_miss_rate::total     0.938571                       # mshr miss rate for ReadCleanReq accesses
system.l2.ReadCleanReq_avg_mshr_miss_latency::.cpu.inst 78476.407915                       # average ReadCleanReq mshr miss latency
system.l2.ReadCleanReq_avg_mshr_miss_latency::total 78476.407915                       # average ReadCleanReq mshr miss latency
system.l2.ReadSharedReq_hits::.cpu.data        451812                       # number of ReadSharedReq hits
system.l2.ReadSharedReq_hits::total            451812                       # number of ReadSharedReq hits
system.l2.ReadSharedReq_misses::.cpu.data        82136                       # number of ReadSharedReq misses
system.l2.ReadSharedReq_misses::total           82136                       # number of ReadSharedReq misses
system.l2.ReadSharedReq_miss_latency::.cpu.data   8351369000                       # number of ReadSharedReq miss cycles
system.l2.ReadSharedReq_miss_latency::total   8351369000                       # number of ReadSharedReq miss cycles
system.l2.ReadSharedReq_accesses::.cpu.data       533948                       # number of ReadSharedReq accesses(hits+misses)
system.l2.ReadSharedReq_accesses::total        533948                       # number of ReadSharedReq accesses(hits+misses)
system.l2.ReadSharedReq_miss_rate::.cpu.data     0.153828                       # miss rate for ReadSharedReq accesses
system.l2.ReadSharedReq_miss_rate::total     0.153828                       # miss rate for ReadSharedReq accesses
system.l2.ReadSharedReq_avg_miss_latency::.cpu.data 101677.327846                       # average ReadSharedReq miss latency
system.l2.ReadSharedReq_avg_miss_latency::total 101677.327846                       # average ReadSharedReq miss latency
system.l2.ReadSharedReq_mshr_hits::.cpu.data            6                       # number of ReadSharedReq MSHR hits
system.l2.ReadSharedReq_mshr_hits::total            6                       # number of ReadSharedReq MSHR hits
system.l2.ReadSharedReq_mshr_misses::.cpu.data        82130                       # number of ReadSharedReq MSHR misses
system.l2.ReadSharedReq_mshr_misses::total        82130                       # number of ReadSharedReq MSHR misses
system.l2.ReadSharedReq_mshr_miss_latency::.cpu.data   6708309000                       # number of ReadSharedReq MSHR miss cycles
system.l2.ReadSharedReq_mshr_miss_latency::total   6708309000                       # number of ReadSharedReq MSHR miss cycles
system.l2.ReadSharedReq_mshr_miss_rate::.cpu.data     0.153816                       # mshr miss rate for ReadSharedReq accesses
system.l2.ReadSharedReq_mshr_miss_rate::total     0.153816                       # mshr miss rate for ReadSharedReq accesses
system.l2.ReadSharedReq_avg_mshr_miss_latency::.cpu.data 81679.154998                       # average ReadSharedReq mshr miss latency
system.l2.ReadSharedReq_avg_mshr_miss_latency::total 81679.154998                       # average ReadSharedReq mshr miss latency
system.l2.power_state.pwrStateResidencyTicks::UNDEFINED 165522023000                       # Cumulative time (in ticks) in various power states
system.l2.tags.tagsinuse                 16136.877616                       # Cycle average of tags in use
system.l2.tags.total_refs                     1750293                       # Total number of references to valid blocks.
system.l2.tags.sampled_refs                    230240                       # Sample count of references to valid blocks.
system.l2.tags.avg_refs                      7.602037                       # Average number of references to valid blocks.
system.l2.tags.warmup_cycle                     87000                       # Cycle when the warmup percentage was hit.
system.l2.tags.occ_blocks::.writebacks      18.920266                       # Average occupied blocks per requestor
system.l2.tags.occ_blocks::.cpu.inst        42.830368                       # Average occupied blocks per requestor
system.l2.tags.occ_blocks::.cpu.data     16075.126981                       # Average occupied blocks per requestor
system.l2.tags.occ_percent::.writebacks      0.001155                       # Average percentage of cache occupancy
system.l2.tags.occ_percent::.cpu.inst        0.002614                       # Average percentage of cache occupancy
system.l2.tags.occ_percent::.cpu.data        0.981148                       # Average percentage of cache occupancy
system.l2.tags.occ_percent::total            0.984917                       # Average percentage of cache occupancy
system.l2.tags.occ_task_id_blocks::1024         16384                       # Occupied blocks per task id
system.l2.tags.age_task_id_blocks_1024::1           85                       # Occupied blocks per task id
system.l2.tags.age_task_id_blocks_1024::2         1468                       # Occupied blocks per task id
system.l2.tags.age_task_id_blocks_1024::3         8971                       # Occupied blocks per task id
system.l2.tags.age_task_id_blocks_1024::4         5860                       # Occupied blocks per task id
system.l2.tags.occ_task_id_percent::1024            1                       # Percentage of cache occupancy per task id
system.l2.tags.tag_accesses                   7231436                       # Number of tag accesses
system.l2.tags.data_accesses                  7231436                       # Number of data accesses
system.l2.tags.power_state.pwrStateResidencyTicks::UNDEFINED 165522023000                       # Cumulative time (in ticks) in various power states
system.mem_ctrls.avgPriority_.writebacks::samples    143204.00                       # Average QoS priority value for accepted requests
system.mem_ctrls.avgPriority_.cpu.inst::samples       657.00                       # Average QoS priority value for accepted requests
system.mem_ctrls.avgPriority_.cpu.data::samples    229315.00                       # Average QoS priority value for accepted requests
system.mem_ctrls.priorityMinLatency      0.000000018750                       # per QoS priority minimum request to response latency (s)
system.mem_ctrls.priorityMaxLatency      0.008237882500                       # per QoS priority maximum request to response latency (s)
system.mem_ctrls.numReadWriteTurnArounds         8467                       # Number of turnarounds from READ to WRITE
system.mem_ctrls.numWriteReadTurnArounds         8467                       # Number of turnarounds from WRITE to READ
system.mem_ctrls.numStayReadState              635494                       # Number of times bus staying in READ state
system.mem_ctrls.numStayWriteState             134840                       # Number of times bus staying in WRITE state
system.mem_ctrls.readReqs                      230138                       # Number of read requests accepted
system.mem_ctrls.writeReqs                     143204                       # Number of write requests accepted
system.mem_ctrls.readBursts                    230138                       # Number of controller read bursts, including those serviced by the write queue
system.mem_ctrls.writeBursts                   143204                       # Number of controller write bursts, including those merged in the write queue
system.mem_ctrls.servicedByWrQ                    166                       # Number of controller read bursts serviced by the write queue
system.mem_ctrls.mergedWrBursts                     0                       # Number of controller write bursts merged with an existing one
system.mem_ctrls.neitherReadNorWriteReqs            0                       # Number of requests that are neither read nor write
system.mem_ctrls.avgRdQLen                       1.05                       # Average read queue length when enqueuing
system.mem_ctrls.avgWrQLen                      24.96                       # Average write queue length when enqueuing
system.mem_ctrls.numRdRetry                         0                       # Number of times read queue was full causing retry
system.mem_ctrls.numWrRetry                         0                       # Number of times write queue was full causing retry
system.mem_ctrls.readPktSize::0                     0                       # Read request sizes (log2)
system.mem_ctrls.readPktSize::1                     0                       # Read request sizes (log2)
system.mem_ctrls.readPktSize::2                     0                       # Read request sizes (log2)
system.mem_ctrls.readPktSize::3                     0                       # Read request sizes (log2)
system.mem_ctrls.readPktSize::4                     0                       # Read request sizes (log2)
system.mem_ctrls.readPktSize::5                     0                       # Read request sizes (log2)
system.mem_ctrls.readPktSize::6                230138                       # Read request sizes (log2)
system.mem_ctrls.writePktSize::0                    0                       # Write request sizes (log2)
system.mem_ctrls.writePktSize::1                    0                       # Write request sizes (log2)
system.mem_ctrls.writePktSize::2                    0                       # Write request sizes (log2)
system.mem_ctrls.writePktSize::3                    0                       # Write request sizes (log2)
system.mem_ctrls.writePktSize::4                    0                       # Write request sizes (log2)
system.mem_ctrls.writePktSize::5                    0                       # Write request sizes (log2)
system.mem_ctrls.writePktSize::6               143204                       # Write request sizes (log2)
system.mem_ctrls.rdQLenPdf::0                  179762                       # What read queue length does an incoming req see
system.mem_ctrls.rdQLenPdf::1                   49755                       # What read queue length does an incoming req see
system.mem_ctrls.rdQLenPdf::2                     253                       # What read queue length does an incoming req see
system.mem_ctrls.rdQLenPdf::3                     201                       # What read queue length does an incoming req see
system.mem_ctrls.rdQLenPdf::4                       1                       # What read queue length does an incoming req see
system.mem_ctrls.rdQLenPdf::5                       0                       # What read queue length does an incoming req see
system.mem_ctrls.rdQLenPdf::6                       0                       # What read queue length does an incoming req see
system.mem_ctrls.rdQLenPdf::7                       0                       # What read queue length does an incoming req see
system.mem_ctrls.rdQLenPdf::8                       0                       # What read queue length does an incoming req see
system.mem_ctrls.rdQLenPdf::9                       0                       # What read queue length does an incoming req see
system.mem_ctrls.rdQLenPdf::10                      0                       # What read queue length does an incoming req see
system.mem_ctrls.rdQLenPdf::11                      0                       # What read queue length does an incoming req see
system.mem_ctrls.rdQLenPdf::12                      0                       # What read queue length does an incoming req see
[...]
system.mem_ctrls.dram.bw_write::.writebacks     55370614                       # Write bandwidth from this memory (bytes/s)
system.mem_ctrls.dram.bw_write::total        55370614                       # Write bandwidth from this memory (bytes/s)
system.mem_ctrls.dram.bw_total::.writebacks     55370614                       # Total bandwidth to/from this memory (bytes/s)
system.mem_ctrls.dram.bw_total::.cpu.inst       254033                       # Total bandwidth to/from this memory (bytes/s)
system.mem_ctrls.dram.bw_total::.cpu.data     88730090                       # Total bandwidth to/from this memory (bytes/s)
system.mem_ctrls.dram.bw_total::total       144354736                       # Total bandwidth to/from this memory (bytes/s)
system.mem_ctrls.dram.readBursts               229972                       # Number of DRAM read bursts
system.mem_ctrls.dram.writeBursts              143178                       # Number of DRAM write bursts
system.mem_ctrls.dram.perBankRdBursts::0        14391                       # Per bank write bursts
system.mem_ctrls.dram.perBankRdBursts::1        14404                       # Per bank write bursts
system.mem_ctrls.dram.perBankRdBursts::2        14304                       # Per bank write bursts
system.mem_ctrls.dram.perBankRdBursts::3        14196                       # Per bank write bursts
system.mem_ctrls.dram.perBankRdBursts::4        14574                       # Per bank write bursts
system.mem_ctrls.dram.perBankRdBursts::5        14027                       # Per bank write bursts
system.mem_ctrls.dram.perBankRdBursts::6        14529                       # Per bank write bursts
system.mem_ctrls.dram.perBankRdBursts::7        14598                       # Per bank write bursts
system.mem_ctrls.dram.perBankRdBursts::8        14427                       # Per bank write bursts
system.mem_ctrls.dram.perBankRdBursts::9        13691                       # Per bank write bursts
system.mem_ctrls.dram.perBankRdBursts::10        13909                       # Per bank write bursts
system.mem_ctrls.dram.perBankRdBursts::11        14643                       # Per bank write bursts
system.mem_ctrls.dram.perBankRdBursts::12        14391                       # Per bank write bursts
system.mem_ctrls.dram.perBankRdBursts::13        14792                       # Per bank write bursts
system.mem_ctrls.dram.perBankRdBursts::14        14559                       # Per bank write bursts
system.mem_ctrls.dram.perBankRdBursts::15        14537                       # Per bank write bursts
system.mem_ctrls.dram.perBankWrBursts::0         8804                       # Per bank write bursts
system.mem_ctrls.dram.perBankWrBursts::1         8845                       # Per bank write bursts
system.mem_ctrls.dram.perBankWrBursts::2         8805                       # Per bank write bursts
system.mem_ctrls.dram.perBankWrBursts::3         8830                       # Per bank write bursts
system.mem_ctrls.dram.perBankWrBursts::4         9193                       # Per bank write bursts
system.mem_ctrls.dram.perBankWrBursts::5         8791                       # Per bank write bursts
system.mem_ctrls.dram.perBankWrBursts::6         9249                       # Per bank write bursts
system.mem_ctrls.dram.perBankWrBursts::7         9257                       # Per bank write bursts
system.mem_ctrls.dram.perBankWrBursts::8         9154                       # Per bank write bursts
system.mem_ctrls.dram.perBankWrBursts::9         8457                       # Per bank write bursts
system.mem_ctrls.dram.perBankWrBursts::10         8534                       # Per bank write bursts
system.mem_ctrls.dram.perBankWrBursts::11         9163                       # Per bank write bursts
system.mem_ctrls.dram.perBankWrBursts::12         8809                       # Per bank write bursts
system.mem_ctrls.dram.perBankWrBursts::13         9210                       # Per bank write bursts
system.mem_ctrls.dram.perBankWrBursts::14         9006                       # Per bank write bursts
system.mem_ctrls.dram.perBankWrBursts::15         9071                       # Per bank write bursts
system.mem_ctrls.dram.totQLat              3437259000                       # Total ticks spent queuing
system.mem_ctrls.dram.totBusLat            1149860000                       # Total ticks spent in databus transfers
system.mem_ctrls.dram.totMemAccLat         7749234000                       # Total ticks spent from burst creation until serviced by the DRAM
system.mem_ctrls.dram.avgQLat                14946.42                       # Average queueing delay per DRAM burst
system.mem_ctrls.dram.avgBusLat               5000.00                       # Average bus latency per DRAM burst
system.mem_ctrls.dram.avgMemAccLat           33696.42                       # Average memory access latency per DRAM burst
system.mem_ctrls.dram.readRowHits              137113                       # Number of row buffer hits during reads
system.mem_ctrls.dram.writeRowHits              85879                       # Number of row buffer hits during writes
system.mem_ctrls.dram.readRowHitRate            59.62                       # Row buffer hit rate for reads
system.mem_ctrls.dram.writeRowHitRate           59.98                       # Row buffer hit rate for writes
system.mem_ctrls.dram.bytesPerActivate::samples       150158                       # Bytes accessed per row activation
system.mem_ctrls.dram.bytesPerActivate::mean   159.043141                       # Bytes accessed per row activation
system.mem_ctrls.dram.bytesPerActivate::gmean    98.201724                       # Bytes accessed per row activation
system.mem_ctrls.dram.bytesPerActivate::stdev   226.183582                       # Bytes accessed per row activation
system.mem_ctrls.dram.bytesPerActivate::0-127       109155     72.69%     72.69% # Bytes accessed per row activation
system.mem_ctrls.dram.bytesPerActivate::128-255        17367     11.57%     84.26% # Bytes accessed per row activation
system.mem_ctrls.dram.bytesPerActivate::256-383         5379      3.58%     87.84% # Bytes accessed per row activation
system.mem_ctrls.dram.bytesPerActivate::384-511         1300      0.87%     88.71% # Bytes accessed per row activation
system.mem_ctrls.dram.bytesPerActivate::512-639         9045      6.02%     94.73% # Bytes accessed per row activation
system.mem_ctrls.dram.bytesPerActivate::640-767          637      0.42%     95.16% # Bytes accessed per row activation
system.mem_ctrls.dram.bytesPerActivate::768-895          524      0.35%     95.50% # Bytes accessed per row activation
system.mem_ctrls.dram.bytesPerActivate::896-1023          527      0.35%     95.86% # Bytes accessed per row activation
system.mem_ctrls.dram.bytesPerActivate::1024-1151         6224      4.14%    100.00% # Bytes accessed per row activation
system.mem_ctrls.dram.bytesPerActivate::total       150158                       # Bytes accessed per row activation
system.mem_ctrls.dram.bytesRead              14718208                       # Total number of bytes read from DRAM
system.mem_ctrls.dram.bytesWritten            9163392                       # Total number of bytes written to DRAM
system.mem_ctrls.dram.avgRdBW               88.919938                       # Average DRAM read bandwidth in MiBytes/s
system.mem_ctrls.dram.avgWrBW               55.360561                       # Average DRAM write bandwidth in MiBytes/s
system.mem_ctrls.dram.peakBW                 12800.00                       # Theoretical peak bandwidth in MiByte/s
system.mem_ctrls.dram.busUtil                    1.13                       # Data bus utilization in percentage
system.mem_ctrls.dram.busUtilRead                0.69                       # Data bus utilization in percentage for reads
system.mem_ctrls.dram.busUtilWrite               0.43                       # Data bus utilization in percentage for writes
system.mem_ctrls.dram.pageHitRate               59.76                       # Row buffer hit rate, read and write combined
system.mem_ctrls.dram.power_state.pwrStateResidencyTicks::UNDEFINED 165522023000                       # Cumulative time (in ticks) in various power states
system.mem_ctrls.dram.rank0.actEnergy       534893100                       # Energy for activate commands per rank (pJ)
system.mem_ctrls.dram.rank0.preEnergy       284302425                       # Energy for precharge commands per rank (pJ)
system.mem_ctrls.dram.rank0.readEnergy      821264220                       # Energy for read commands per rank (pJ)
system.mem_ctrls.dram.rank0.writeEnergy     374660280                       # Energy for write commands per rank (pJ)
system.mem_ctrls.dram.rank0.refreshEnergy 13066017120.000002                       # Energy for refresh commands per rank (pJ)
system.mem_ctrls.dram.rank0.actBackEnergy  37600153170                       # Energy for active background per rank (pJ)
system.mem_ctrls.dram.rank0.preBackEnergy  31897170240                       # Energy for precharge background per rank (pJ)
system.mem_ctrls.dram.rank0.actPowerDownEnergy            0                       # Energy for active power-down per rank (pJ)
system.mem_ctrls.dram.rank0.prePowerDownEnergy            0                       # Energy for precharge power-down per rank (pJ)
system.mem_ctrls.dram.rank0.selfRefreshEnergy            0                       # Energy for self refresh per rank (pJ)
system.mem_ctrls.dram.rank0.totalEnergy   84578460555                       # Total energy per rank (pJ)
system.mem_ctrls.dram.rank0.averagePower   510.980104                       # Core power per rank (mW)
system.mem_ctrls.dram.rank0.totalIdleTime            0                       # Total Idle time Per DRAM Rank
system.mem_ctrls.dram.rank0.pwrStateTime::IDLE  82531326500                       # Time in different power states
system.mem_ctrls.dram.rank0.pwrStateTime::REF   5527080000                       # Time in different power states
system.mem_ctrls.dram.rank0.pwrStateTime::SREF            0                       # Time in different power states
system.mem_ctrls.dram.rank0.pwrStateTime::PRE_PDN            0                       # Time in different power states
system.mem_ctrls.dram.rank0.pwrStateTime::ACT  77463616500                       # Time in different power states
system.mem_ctrls.dram.rank0.pwrStateTime::ACT_PDN            0                       # Time in different power states
system.mem_ctrls.dram.rank1.actEnergy       537235020                       # Energy for activate commands per rank (pJ)
system.mem_ctrls.dram.rank1.preEnergy       285547185                       # Energy for precharge commands per rank (pJ)
system.mem_ctrls.dram.rank1.readEnergy      820735860                       # Energy for read commands per rank (pJ)
system.mem_ctrls.dram.rank1.writeEnergy     372728880                       # Energy for write commands per rank (pJ)
system.mem_ctrls.dram.rank1.refreshEnergy 13066017120.000002                       # Energy for refresh commands per rank (pJ)
system.mem_ctrls.dram.rank1.actBackEnergy  37298190540                       # Energy for active background per rank (pJ)
system.mem_ctrls.dram.rank1.preBackEnergy  32151454560                       # Energy for precharge background per rank (pJ)
system.mem_ctrls.dram.rank1.actPowerDownEnergy            0                       # Energy for active power-down per rank (pJ)
system.mem_ctrls.dram.rank1.prePowerDownEnergy            0                       # Energy for precharge power-down per rank (pJ)
system.mem_ctrls.dram.rank1.selfRefreshEnergy            0                       # Energy for self refresh per rank (pJ)
system.mem_ctrls.dram.rank1.totalEnergy   84531909165                       # Total energy per rank (pJ)
system.mem_ctrls.dram.rank1.averagePower   510.698864                       # Core power per rank (mW)
system.mem_ctrls.dram.rank1.totalIdleTime            0                       # Total Idle time Per DRAM Rank
system.mem_ctrls.dram.rank1.pwrStateTime::IDLE  83191927250                       # Time in different power states
system.mem_ctrls.dram.rank1.pwrStateTime::REF   5527080000                       # Time in different power states
system.mem_ctrls.dram.rank1.pwrStateTime::SREF            0                       # Time in different power states
system.mem_ctrls.dram.rank1.pwrStateTime::PRE_PDN            0                       # Time in different power states
system.mem_ctrls.dram.rank1.pwrStateTime::ACT  76803015750                       # Time in different power states
system.mem_ctrls.dram.rank1.pwrStateTime::ACT_PDN            0                       # Time in different power states
system.mem_ctrls.power_state.pwrStateResidencyTicks::UNDEFINED 165522023000                       # Cumulative time (in ticks) in various power states
system.membus.trans_dist::ReadResp              82787                       # Transaction distribution
system.membus.trans_dist::WritebackDirty       143204                       # Transaction distribution
system.membus.trans_dist::CleanEvict            69979                       # Transaction distribution
system.membus.trans_dist::ReadExReq            147351                       # Transaction distribution
system.membus.trans_dist::ReadExResp           147351                       # Transaction distribution
system.membus.trans_dist::ReadSharedReq         82787                       # Transaction distribution
system.membus.pkt_count_system.l2.mem_side_port::system.mem_ctrls.port       673459                       # Packet count per connected requestor and responder (bytes)
system.membus.pkt_count::total                 673459                       # Packet count per connected requestor and responder (bytes)
system.membus.pkt_size_system.l2.mem_side_port::system.mem_ctrls.port     23893888                       # Cumulative packet size per connected requestor and responder (bytes)
system.membus.pkt_size::total                23893888                       # Cumulative packet size per connected requestor and responder (bytes)
system.membus.snoops                                0                       # Total snoops (count)
system.membus.snoopTraffic                          0                       # Total snoop traffic (bytes)
system.membus.snoop_fanout::samples            230138                       # Request fanout histogram
system.membus.snoop_fanout::mean                    0                       # Request fanout histogram
system.membus.snoop_fanout::stdev                   0                       # Request fanout histogram
system.membus.snoop_fanout::underflows              0      0.00%      0.00% # Request fanout histogram
system.membus.snoop_fanout::0                  230138    100.00%    100.00% # Request fanout histogram
system.membus.snoop_fanout::1                       0      0.00%    100.00% # Request fanout histogram
system.membus.snoop_fanout::overflows               0      0.00%    100.00% # Request fanout histogram
system.membus.snoop_fanout::min_value               0                       # Request fanout histogram
system.membus.snoop_fanout::max_value               0                       # Request fanout histogram
system.membus.snoop_fanout::total              230138                       # Request fanout histogram
system.membus.power_state.pwrStateResidencyTicks::UNDEFINED 165522023000                       # Cumulative time (in ticks) in various power states
system.membus.reqLayer0.occupancy          1016137000                       # Layer occupancy (ticks)
system.membus.reqLayer0.utilization               0.6                       # Layer utilization (%)
system.membus.respLayer1.occupancy         1247018750                       # Layer occupancy (ticks)
system.membus.respLayer1.utilization              0.8                       # Layer utilization (%)
system.tol2bus.trans_dist::ReadResp            534648                       # Transaction distribution
system.tol2bus.trans_dist::WritebackDirty       930225                       # Transaction distribution
system.tol2bus.trans_dist::WritebackClean          128                       # Transaction distribution
system.tol2bus.trans_dist::CleanEvict          158301                       # Transaction distribution
system.tol2bus.trans_dist::ReadExReq           341234                       # Transaction distribution
system.tol2bus.trans_dist::ReadExResp          341234                       # Transaction distribution
system.tol2bus.trans_dist::ReadCleanReq           700                       # Transaction distribution
system.tol2bus.trans_dist::ReadSharedReq       533948                       # Transaction distribution
system.tol2bus.pkt_count_system.cpu.icache.mem_side_port::system.l2.cpu_side_port         1528                       # Packet count per connected requestor and responder (bytes)
system.tol2bus.pkt_count_system.cpu.dcache.mem_side_port::system.l2.cpu_side_port      2625034                       # Packet count per connected requestor and responder (bytes)
system.tol2bus.pkt_count::total               2626562                       # Packet count per connected requestor and responder (bytes)
system.tol2bus.pkt_size_system.cpu.icache.mem_side_port::system.l2.cpu_side_port        52992                       # Cumulative packet size per connected requestor and responder (bytes)
system.tol2bus.pkt_size_system.cpu.dcache.mem_side_port::system.l2.cpu_side_port    106380992                       # Cumulative packet size per connected requestor and responder (bytes)
system.tol2bus.pkt_size::total              106433984                       # Cumulative packet size per connected requestor and responder (bytes)
system.tol2bus.snoops                          213856                       # Total snoops (count)
system.tol2bus.snoopTraffic                   9165056                       # Total snoop traffic (bytes)
system.tol2bus.snoop_fanout::samples          1089738                       # Request fanout histogram
system.tol2bus.snoop_fanout::mean            0.000970                       # Request fanout histogram
system.tol2bus.snoop_fanout::stdev           0.031188                       # Request fanout histogram
system.tol2bus.snoop_fanout::underflows             0      0.00%      0.00% # Request fanout histogram
system.tol2bus.snoop_fanout::0                1088683     99.90%     99.90% # Request fanout histogram
system.tol2bus.snoop_fanout::1                   1053      0.10%    100.00% # Request fanout histogram
system.tol2bus.snoop_fanout::2                      2      0.00%    100.00% # Request fanout histogram
system.tol2bus.snoop_fanout::overflows              0      0.00%    100.00% # Request fanout histogram
system.tol2bus.snoop_fanout::min_value              0                       # Request fanout histogram
system.tol2bus.snoop_fanout::max_value              2                       # Request fanout histogram
system.tol2bus.snoop_fanout::total            1089738                       # Request fanout histogram
system.tol2bus.power_state.pwrStateResidencyTicks::UNDEFINED 165522023000                       # Cumulative time (in ticks) in various power states
system.tol2bus.reqLayer0.occupancy         3324978000                       # Layer occupancy (ticks)
system.tol2bus.reqLayer0.utilization              2.0                       # Layer utilization (%)
system.tol2bus.respLayer0.occupancy           2100000                       # Layer occupancy (ticks)
system.tol2bus.respLayer0.utilization             0.0                       # Layer utilization (%)
system.tol2bus.respLayer1.occupancy        2625551994                       # Layer occupancy (ticks)
system.tol2bus.respLayer1.utilization             1.6                       # Layer utilization (%)
system.voltage_domain.voltage                       1                       # Voltage in Volts

---------- End Simulation Statistics   ----------
