
---------- Begin Simulation Statistics ----------
final_tick                               166915866000                       # Number of ticks from beginning of simulation (restored from checkpoints and never reset)
host_inst_rate                                 150467                       # Simulator instruction rate (inst/s)
host_mem_usage                                 659372                       # Number of bytes of host memory used
host_op_rate                                   150762                       # Simulator op (including micro ops) rate (op/s)
host_seconds                                   664.60                       # Real time elapsed on the host
host_tick_rate                              251152824                       # Simulator tick rate (ticks/s)
sim_freq                                 1000000000000                       # Frequency of simulated ticks
sim_insts                                   100000001                       # Number of instructions simulated
sim_ops                                     100196356                       # Number of ops (including micro ops) simulated
sim_seconds                                  0.166916                       # Number of seconds simulated
sim_ticks                                166915866000                       # Number of ticks simulated
system.cpu.committedInsts                   100000001                       # Number of instructions committed
system.cpu.committedOps                     100196356                       # Number of ops (including micro ops) committed
system.cpu.cpi                               1.669159                       # CPI: cycles per instruction
system.cpu.discardedOps                        189508                       # Number of ops (including micro ops) which were discarded before commit
system.cpu.idleCycles                        34031442                       # Total number of cycles that the object has spent stopped
system.cpu.ipc                               0.599104                       # IPC: instructions per cycle
system.cpu.numCycles                        166915866                       # number of cpu cycles simulated
system.cpu.numFetchSuspends                         0                       # Number of times Execute suspended instruction fetching
system.cpu.numWorkItemsCompleted                    0                       # number of work items this cpu completed
system.cpu.numWorkItemsStarted                      0                       # number of work items this cpu started
system.cpu.op_class_0::No_OpClass                   0      0.00%      0.00% # Class of committed instruction
system.cpu.op_class_0::IntAlu                46526863     46.44%     46.44% # Class of committed instruction
system.cpu.op_class_0::IntMult                  20723      0.02%     46.46% # Class of committed instruction
system.cpu.op_class_0::IntDiv                       0      0.00%     46.46% # Class of committed instruction
system.cpu.op_class_0::FloatAdd                     0      0.00%     46.46% # Class of committed instruction
system.cpu.op_class_0::FloatCmp                     0      0.00%     46.46% # Class of committed instruction
system.cpu.op_class_0::FloatCvt                     0      0.00%     46.46% # Class of committed instruction
system.cpu.op_class_0::FloatMult                    0      0.00%     46.46% # Class of committed instruction
system.cpu.op_class_0::FloatMultAcc                 0      0.00%     46.46% # Class of committed instruction
system.cpu.op_class_0::FloatDiv                     0      0.00%     46.46% # Class of committed instruction
system.cpu.op_class_0::FloatMisc                    0      0.00%     46.46% # Class of committed instruction
system.cpu.op_class_0::FloatSqrt                    0      0.00%     46.46% # Class of committed instruction
system.cpu.op_class_0::SimdAdd                      0      0.00%     46.46% # Class of committed instruction
system.cpu.op_class_0::SimdAddAcc                   0      0.00%     46.46% # Class of committed instruction
system.cpu.op_class_0::SimdAlu                      0      0.00%     46.46% # Class of committed instruction
system.cpu.op_class_0::SimdCmp                      0      0.00%     46.46% # Class of committed instruction
system.cpu.op_class_0::SimdCvt                      0      0.00%     46.46% # Class of committed instruction
system.cpu.op_class_0::SimdMisc                     0      0.00%     46.46% # Class of committed instruction
system.cpu.op_class_0::SimdMult                     0      0.00%     46.46% # Class of committed instruction
system.cpu.op_class_0::SimdMultAcc                  0      0.00%     46.46% # Class of committed instruction
system.cpu.op_class_0::SimdShift                    0      0.00%     46.46% # Class of committed instruction
system.cpu.op_class_0::SimdShiftAcc                 0      0.00%     46.46% # Class of committed instruction
system.cpu.op_class_0::SimdDiv                      0      0.00%     46.46% # Class of committed instruction
system.cpu.op_class_0::SimdSqrt                     0      0.00%     46.46% # Class of committed instruction
system.cpu.op_class_0::SimdFloatAdd                 0      0.00%     46.46% # Class of committed instruction
system.cpu.op_class_0::SimdFloatAlu                 0      0.00%     46.46% # Class of committed instruction
system.cpu.op_class_0::SimdFloatCmp                 0      0.00%     46.46% # Class of committed instruction
system.cpu.op_class_0::SimdFloatCvt                 0      0.00%     46.46% # Class of committed instruction
system.cpu.op_class_0::SimdFloatDiv                 0      0.00%     46.46% # Class of committed instruction
system.cpu.op_class_0::SimdFloatMisc               18      0.00%     46.46% # Class of committed instruction
system.cpu.op_class_0::SimdFloatMult                0      0.00%     46.46% # Class of committed instruction
system.cpu.op_class_0::SimdFloatMultAcc             0      0.00%     46.46% # Class of committed instruction
system.cpu.op_class_0::SimdFloatSqrt                0      0.00%     46.46% # Class of committed instruction
system.cpu.op_class_0::SimdReduceAdd                0      0.00%     46.46% # Class of committed instruction
system.cpu.op_class_0::SimdReduceAlu                0      0.00%     46.46% # Class of committed instruction
system.cpu.op_class_0::SimdReduceCmp                0      0.00%     46.46% # Class of committed instruction
system.cpu.op_class_0::SimdFloatReduceAdd            0      0.00%     46.46% # Class of committed instruction
system.cpu.op_class_0::SimdFloatReduceCmp            0      0.00%     46.46% # Class of committed instruction
system.cpu.op_class_0::SimdAes                      0      0.00%     46.46% # Class of committed instruction
system.cpu.op_class_0::SimdAesMix                   0      0.00%     46.46% # Class of committed instruction
system.cpu.op_class_0::SimdSha1Hash                 0      0.00%     46.46% # Class of committed instruction
system.cpu.op_class_0::SimdSha1Hash2                0      0.00%     46.46% # Class of committed instruction
system.cpu.op_class_0::SimdSha256Hash               0      0.00%     46.46% # Class of committed instruction
system.cpu.op_class_0::SimdSha256Hash2              0      0.00%     46.46% # Class of committed instruction
system.cpu.op_class_0::SimdShaSigma2                0      0.00%     46.46% # Class of committed instruction
system.cpu.op_class_0::SimdShaSigma3                0      0.00%     46.46% # Class of committed instruction
system.cpu.op_class_0::SimdPredAlu                  0      0.00%     46.46% # Class of committed instruction
system.cpu.op_class_0::MemRead               42690537     42.61%     89.06% # Class of committed instruction
system.cpu.op_class_0::MemWrite              10958215     10.94%    100.00% # Class of committed instruction
system.cpu.op_class_0::FloatMemRead                 0      0.00%    100.00% # Class of committed instruction
system.cpu.op_class_0::FloatMemWrite                0      0.00%    100.00% # Class of committed instruction
system.cpu.op_class_0::IprAccess                    0      0.00%    100.00% # Class of committed instruction
system.cpu.op_class_0::InstPrefetch                 0      0.00%    100.00% # Class of committed instruction
system.cpu.op_class_0::total                100196356                       # Class of committed instruction
system.cpu.tickCycles                       132884424                       # Number of cycles that the object actually ticked
system.cpu.workload.numSyscalls                    85                       # Number of system calls
system.membus.snoop_filter.hit_multi_requests            0                       # Number of requests hitting in the snoop filter with multiple (>1) holders of the requested data.
system.membus.snoop_filter.hit_multi_snoops            0                       # Number of snoops hitting in the snoop filter with multiple (>1) holders of the requested data.
system.membus.snoop_filter.hit_single_requests       278633                       # Number of requests hitting in the snoop filter with a single holder of the requested data.
system.membus.snoop_filter.hit_single_snoops            0                       # Number of snoops hitting in the snoop filter with a single holder of the requested data.
system.membus.snoop_filter.tot_requests        565934                       # Total number of requests made to the snoop filter.
system.membus.snoop_filter.tot_snoops               0                       # Total number of snoops made to the snoop filter.
system.tol2bus.snoop_filter.hit_multi_requests          664                       # Number of requests hitting in the snoop filter with multiple (>1) holders of the requested data.
system.tol2bus.snoop_filter.hit_multi_snoops           18                       # Number of snoops hitting in the snoop filter with multiple (>1) holders of the requested data.
system.tol2bus.snoop_filter.hit_single_requests       780459                       # Number of requests hitting in the snoop filter with a single holder of the requested data.
system.tol2bus.snoop_filter.hit_single_snoops        14184                       # Number of snoops hitting in the snoop filter with a single holder of the requested data.
system.tol2bus.snoop_filter.tot_requests      1562443                       # Total number of requests made to the snoop filter.
system.tol2bus.snoop_filter.tot_snoops          14202                       # Total number of snoops made to the snoop filter.
system.clk_domain.clock                          1000                       # Clock period in ticks
system.cpu.branchPred.lookups                 4485851                       # Number of BP lookups
system.cpu.branchPred.condPredicted           3735522                       # Number of conditional branches predicted
system.cpu.branchPred.condIncorrect             81006                       # Number of conditional branches incorrect
system.cpu.branchPred.BTBLookups              2103837                       # Number of BTB lookups
system.cpu.branchPred.BTBHits                 2101841                       # Number of BTB hits
system.cpu.branchPred.BTBHitPct             99.905126                       # BTB Hit Percentage
system.cpu.branchPred.RASUsed                   65381                       # Number of times the RAS was used to get a target.
system.cpu.branchPred.RASIncorrect                 14                       # Number of incorrect RAS predictions.
system.cpu.branchPred.indirectLookups             699                       # Number of indirect predictor lookups.
system.cpu.branchPred.indirectHits                289                       # Number of indirect target hits.
system.cpu.branchPred.indirectMisses              410                       # Number of indirect misses.
system.cpu.branchPred.indirectMispredicted          171                       # Number of mispredicted indirect branches.
system.cpu.dcache.demand_hits::.cpu.data     51239769                       # number of demand (read+write) hits
system.cpu.dcache.demand_hits::total         51239769                       # number of demand (read+write) hits
system.cpu.dcache.overall_hits::.cpu.data     51240239                       # number of overall hits
system.cpu.dcache.overall_hits::total        51240239                       # number of overall hits
system.cpu.dcache.demand_misses::.cpu.data       828715                       # number of demand (read+write) misses
system.cpu.dcache.demand_misses::total         828715                       # number of demand (read+write) misses
system.cpu.dcache.overall_misses::.cpu.data       836662                       # number of overall misses
system.cpu.dcache.overall_misses::total        836662                       # number of overall misses
system.cpu.dcache.demand_miss_latency::.cpu.data  46024326000                       # number of demand (read+write) miss cycles
system.cpu.dcache.demand_miss_latency::total  46024326000                       # number of demand (read+write) miss cycles
system.cpu.dcache.overall_miss_latency::.cpu.data  46024326000                       # number of overall miss cycles
system.cpu.dcache.overall_miss_latency::total  46024326000                       # number of overall miss cycles
system.cpu.dcache.demand_accesses::.cpu.data     52068484                       # number of demand (read+write) accesses
system.cpu.dcache.demand_accesses::total     52068484                       # number of demand (read+write) accesses
system.cpu.dcache.overall_accesses::.cpu.data     52076901                       # number of overall (read+write) accesses
system.cpu.dcache.overall_accesses::total     52076901                       # number of overall (read+write) accesses
system.cpu.dcache.demand_miss_rate::.cpu.data     0.015916                       # miss rate for demand accesses
system.cpu.dcache.demand_miss_rate::total     0.015916                       # miss rate for demand accesses
system.cpu.dcache.overall_miss_rate::.cpu.data     0.016066                       # miss rate for overall accesses
system.cpu.dcache.overall_miss_rate::total     0.016066                       # miss rate for overall accesses
system.cpu.dcache.demand_avg_miss_latency::.cpu.data 55536.977127                       # average overall miss latency
system.cpu.dcache.demand_avg_miss_latency::total 55536.977127                       # average overall miss latency
system.cpu.dcache.overall_avg_miss_latency::.cpu.data 55009.461407                       # average overall miss latency
system.cpu.dcache.overall_avg_miss_latency::total 55009.461407                       # average overall miss latency
system.cpu.dcache.blocked_cycles::no_mshrs        96346                       # number of cycles access was blocked
system.cpu.dcache.blocked_cycles::no_targets            0                       # number of cycles access was blocked
system.cpu.dcache.blocked::no_mshrs              3171                       # number of cycles access was blocked
system.cpu.dcache.blocked::no_targets               0                       # number of cycles access was blocked
system.cpu.dcache.avg_blocked_cycles::no_mshrs    30.383475                       # average number of cycles each access was blocked
system.cpu.dcache.avg_blocked_cycles::no_targets          nan                       # average number of cycles each access was blocked
system.cpu.dcache.writebacks::.writebacks       679925                       # number of writebacks
system.cpu.dcache.writebacks::total            679925                       # number of writebacks
system.cpu.dcache.demand_mshr_hits::.cpu.data        55410                       # number of demand (read+write) MSHR hits
system.cpu.dcache.demand_mshr_hits::total        55410                       # number of demand (read+write) MSHR hits
system.cpu.dcache.overall_mshr_hits::.cpu.data        55410                       # number of overall MSHR hits
system.cpu.dcache.overall_mshr_hits::total        55410                       # number of overall MSHR hits
system.cpu.dcache.demand_mshr_misses::.cpu.data       773305                       # number of demand (read+write) MSHR misses
system.cpu.dcache.demand_mshr_misses::total       773305                       # number of demand (read+write) MSHR misses
system.cpu.dcache.overall_mshr_misses::.cpu.data       781248                       # number of overall MSHR misses
system.cpu.dcache.overall_mshr_misses::total       781248                       # number of overall MSHR misses
system.cpu.dcache.demand_mshr_miss_latency::.cpu.data  42746487000                       # number of demand (read+write) MSHR miss cycles
system.cpu.dcache.demand_mshr_miss_latency::total  42746487000                       # number of demand (read+write) MSHR miss cycles
system.cpu.dcache.overall_mshr_miss_latency::.cpu.data  43555236999                       # number of overall MSHR miss cycles
system.cpu.dcache.overall_mshr_miss_latency::total  43555236999                       # number of overall MSHR miss cycles
system.cpu.dcache.demand_mshr_miss_rate::.cpu.data     0.014852                       # mshr miss rate for demand accesses
system.cpu.dcache.demand_mshr_miss_rate::total     0.014852                       # mshr miss rate for demand accesses
system.cpu.dcache.overall_mshr_miss_rate::.cpu.data     0.015002                       # mshr miss rate for overall accesses
system.cpu.dcache.overall_mshr_miss_rate::total     0.015002                       # mshr miss rate for overall accesses
system.cpu.dcache.demand_avg_mshr_miss_latency::.cpu.data 55277.655000                       # average overall mshr miss latency
system.cpu.dcache.demand_avg_mshr_miss_latency::total 55277.655000                       # average overall mshr miss latency
system.cpu.dcache.overall_avg_mshr_miss_latency::.cpu.data 55750.846081                       # average overall mshr miss latency
system.cpu.dcache.overall_avg_mshr_miss_latency::total 55750.846081                       # average overall mshr miss latency
system.cpu.dcache.replacements                 780224                       # number of replacements
system.cpu.dcache.ReadReq_hits::.cpu.data     40666813                       # number of ReadReq hits
system.cpu.dcache.ReadReq_hits::total        40666813                       # number of ReadReq hits
system.cpu.dcache.ReadReq_misses::.cpu.data       452589                       # number of ReadReq misses
system.cpu.dcache.ReadReq_misses::total        452589                       # number of ReadReq misses
system.cpu.dcache.ReadReq_miss_latency::.cpu.data  20392054000                       # number of ReadReq miss cycles
system.cpu.dcache.ReadReq_miss_latency::total  20392054000                       # number of ReadReq miss cycles
system.cpu.dcache.ReadReq_accesses::.cpu.data     41119402                       # number of ReadReq accesses(hits+misses)
system.cpu.dcache.ReadReq_accesses::total     41119402                       # number of ReadReq accesses(hits+misses)
system.cpu.dcache.ReadReq_miss_rate::.cpu.data     0.011007                       # miss rate for ReadReq accesses
system.cpu.dcache.ReadReq_miss_rate::total     0.011007                       # miss rate for ReadReq accesses
system.cpu.dcache.ReadReq_avg_miss_latency::.cpu.data 45056.450775                       # average ReadReq miss latency
system.cpu.dcache.ReadReq_avg_miss_latency::total 45056.450775                       # average ReadReq miss latency
system.cpu.dcache.ReadReq_mshr_hits::.cpu.data         1507                       # number of ReadReq MSHR hits
system.cpu.dcache.ReadReq_mshr_hits::total         1507                       # number of ReadReq MSHR hits
system.cpu.dcache.ReadReq_mshr_misses::.cpu.data       451082                       # number of ReadReq MSHR misses
system.cpu.dcache.ReadReq_mshr_misses::total       451082                       # number of ReadReq MSHR misses
system.cpu.dcache.ReadReq_mshr_miss_latency::.cpu.data  19418420000                       # number of ReadReq MSHR miss cycles
system.cpu.dcache.ReadReq_mshr_miss_latency::total  19418420000                       # number of ReadReq MSHR miss cycles
system.cpu.dcache.ReadReq_mshr_miss_rate::.cpu.data     0.010970                       # mshr miss rate for ReadReq accesses
system.cpu.dcache.ReadReq_mshr_miss_rate::total     0.010970                       # mshr miss rate for ReadReq accesses
system.cpu.dcache.ReadReq_avg_mshr_miss_latency::.cpu.data 43048.536630                       # average ReadReq mshr miss latency
system.cpu.dcache.ReadReq_avg_mshr_miss_latency::total 43048.536630                       # average ReadReq mshr miss latency
system.cpu.dcache.WriteReq_hits::.cpu.data     10572956                       # number of WriteReq hits
system.cpu.dcache.WriteReq_hits::total       10572956                       # number of WriteReq hits
system.cpu.dcache.WriteReq_misses::.cpu.data       376126                       # number of WriteReq misses
system.cpu.dcache.WriteReq_misses::total       376126                       # number of WriteReq misses
system.cpu.dcache.WriteReq_miss_latency::.cpu.data  25632272000                       # number of WriteReq miss cycles
system.cpu.dcache.WriteReq_miss_latency::total  25632272000                       # number of WriteReq miss cycles
system.cpu.dcache.WriteReq_accesses::.cpu.data     10949082                       # number of WriteReq accesses(hits+misses)
system.cpu.dcache.WriteReq_accesses::total     10949082                       # number of WriteReq accesses(hits+misses)
system.cpu.dcache.WriteReq_miss_rate::.cpu.data     0.034352                       # miss rate for WriteReq accesses
system.cpu.dcache.WriteReq_miss_rate::total     0.034352                       # miss rate for WriteReq accesses
system.cpu.dcache.WriteReq_avg_miss_latency::.cpu.data 68148.099307                       # average WriteReq miss latency
system.cpu.dcache.WriteReq_avg_miss_latency::total 68148.099307                       # average WriteReq miss latency
system.cpu.dcache.WriteReq_mshr_hits::.cpu.data        53903                       # number of WriteReq MSHR hits
system.cpu.dcache.WriteReq_mshr_hits::total        53903                       # number of WriteReq MSHR hits
system.cpu.dcache.WriteReq_mshr_misses::.cpu.data       322223                       # number of WriteReq MSHR misses
system.cpu.dcache.WriteReq_mshr_misses::total       322223                       # number of WriteReq MSHR misses
system.cpu.dcache.WriteReq_mshr_miss_latency::.cpu.data  23328067000                       # number of WriteReq MSHR miss cycles
system.cpu.dcache.WriteReq_mshr_miss_latency::total  23328067000                       # number of WriteReq MSHR miss cycles
system.cpu.dcache.WriteReq_mshr_miss_rate::.cpu.data     0.029429                       # mshr miss rate for WriteReq accesses
system.cpu.dcache.WriteReq_mshr_miss_rate::total     0.029429                       # mshr miss rate for WriteReq accesses
system.cpu.dcache.WriteReq_avg_mshr_miss_latency::.cpu.data 72397.274558                       # average WriteReq mshr miss latency
system.cpu.dcache.WriteReq_avg_mshr_miss_latency::total 72397.274558                       # average WriteReq mshr miss latency
system.cpu.dcache.SoftPFReq_hits::.cpu.data          470                       # number of SoftPFReq hits
system.cpu.dcache.SoftPFReq_hits::total           470                       # number of SoftPFReq hits
system.cpu.dcache.SoftPFReq_misses::.cpu.data         7947                       # number of SoftPFReq misses
system.cpu.dcache.SoftPFReq_misses::total         7947                       # number of SoftPFReq misses
system.cpu.dcache.SoftPFReq_accesses::.cpu.data         8417                       # number of SoftPFReq accesses(hits+misses)
system.cpu.dcache.SoftPFReq_accesses::total         8417                       # number of SoftPFReq accesses(hits+misses)
system.cpu.dcache.SoftPFReq_miss_rate::.cpu.data     0.944161                       # miss rate for SoftPFReq accesses
system.cpu.dcache.SoftPFReq_miss_rate::total     0.944161                       # miss rate for SoftPFReq accesses
system.cpu.dcache.SoftPFReq_mshr_misses::.cpu.data         7943                       # number of SoftPFReq MSHR misses
system.cpu.dcache.SoftPFReq_mshr_misses::total         7943                       # number of SoftPFReq MSHR misses
system.cpu.dcache.SoftPFReq_mshr_miss_latency::.cpu.data    808749999                       # number of SoftPFReq MSHR miss cycles
system.cpu.dcache.SoftPFReq_mshr_miss_latency::total    808749999                       # number of SoftPFReq MSHR miss cycles
system.cpu.dcache.SoftPFReq_mshr_miss_rate::.cpu.data     0.943685                       # mshr miss rate for SoftPFReq accesses
system.cpu.dcache.SoftPFReq_mshr_miss_rate::total     0.943685                       # mshr miss rate for SoftPFReq accesses
system.cpu.dcache.SoftPFReq_avg_mshr_miss_latency::.cpu.data 101819.211759                       # average SoftPFReq mshr miss latency
system.cpu.dcache.SoftPFReq_avg_mshr_miss_latency::total 101819.211759                       # average SoftPFReq mshr miss latency
system.cpu.dcache.LoadLockedReq_hits::.cpu.data           38                       # number of LoadLockedReq hits
system.cpu.dcache.LoadLockedReq_hits::total           38                       # number of LoadLockedReq hits
system.cpu.dcache.LoadLockedReq_accesses::.cpu.data           38                       # number of LoadLockedReq accesses(hits+misses)
system.cpu.dcache.LoadLockedReq_accesses::total           38                       # number of LoadLockedReq accesses(hits+misses)
system.cpu.dcache.StoreCondReq_hits::.cpu.data           38                       # number of StoreCondReq hits
system.cpu.dcache.StoreCondReq_hits::total           38                       # number of StoreCondReq hits
system.cpu.dcache.StoreCondReq_accesses::.cpu.data           38                       # number of StoreCondReq accesses(hits+misses)
system.cpu.dcache.StoreCondReq_accesses::total           38                       # number of StoreCondReq accesses(hits+misses)
system.cpu.dcache.power_state.pwrStateResidencyTicks::UNDEFINED 166915866000                       # Cumulative time (in ticks) in various power states
system.cpu.dcache.tags.tagsinuse          1012.964703                       # Cycle average of tags in use
system.cpu.dcache.tags.total_refs            52021563                       # Total number of references to valid blocks.
system.cpu.dcache.tags.sampled_refs            781248                       # Sample count of references to valid blocks.
system.cpu.dcache.tags.avg_refs             66.587771                       # Average number of references to valid blocks.
system.cpu.dcache.tags.warmup_cycle            223000                       # Cycle when the warmup percentage was hit.
system.cpu.dcache.tags.occ_blocks::.cpu.data  1012.964703                       # Average occupied blocks per requestor
system.cpu.dcache.tags.occ_percent::.cpu.data     0.989223                       # Average percentage of cache occupancy
system.cpu.dcache.tags.occ_percent::total     0.989223                       # Average percentage of cache occupancy
system.cpu.dcache.tags.occ_task_id_blocks::1024         1024                       # Occupied blocks per task id
system.cpu.dcache.tags.age_task_id_blocks_1024::0           64                       # Occupied blocks per task id
system.cpu.dcache.tags.age_task_id_blocks_1024::1          196                       # Occupied blocks per task id
system.cpu.dcache.tags.age_task_id_blocks_1024::2          698                       # Occupied blocks per task id
system.cpu.dcache.tags.age_task_id_blocks_1024::3           66                       # Occupied blocks per task id
system.cpu.dcache.tags.occ_task_id_percent::1024            1                       # Percentage of cache occupancy per task id
system.cpu.dcache.tags.tag_accesses          52858225                       # Number of tag accesses
system.cpu.dcache.tags.data_accesses         52858225                       # Number of data accesses
system.cpu.dcache.tags.power_state.pwrStateResidencyTicks::UNDEFINED 166915866000                       # Cumulative time (in ticks) in various power states
system.cpu.dtb.instHits                             0                       # ITB inst hits
system.cpu.dtb.instMisses                           0                       # ITB inst misses
system.cpu.dtb.readHits                             0                       # DTB read hits
system.cpu.dtb.readMisses                           0                       # DTB read misses
system.cpu.dtb.writeHits                            0                       # DTB write hits
system.cpu.dtb.writeMisses                          0                       # DTB write misses
system.cpu.dtb.inserts                              0                       # Number of times an entry is inserted into the TLB
system.cpu.dtb.flushTlb                             0                       # Number of times complete TLB was flushed
system.cpu.dtb.flushTlbMva                          0                       # Number of times TLB was flushed by MVA
system.cpu.dtb.flushTlbMvaAsid                      0                       # Number of times TLB was flushed by MVA & ASID
system.cpu.dtb.flushTlbAsid                         0                       # Number of times TLB was flushed by ASID
system.cpu.dtb.flushedEntries                       0                       # Number of entries that have been flushed from TLB
system.cpu.dtb.alignFaults                          0                       # Number of TLB faults due to alignment restrictions
system.cpu.dtb.prefetchFaults                       0                       # Number of TLB faults due to prefetch
system.cpu.dtb.domainFaults                         0                       # Number of TLB faults due to domain restrictions
system.cpu.dtb.permsFaults                          0                       # Number of TLB faults due to permissions restrictions
system.cpu.dtb.readAccesses                         0                       # DTB read accesses
system.cpu.dtb.writeAccesses                        0                       # DTB write accesses
system.cpu.dtb.instAccesses                         0                       # ITB inst accesses
system.cpu.dtb.hits                                 0                       # Total TLB (inst and data) hits
system.cpu.dtb.misses                               0                       # Total TLB (inst and data) misses
system.cpu.dtb.accesses                             0                       # Total TLB (inst and data) accesses
system.cpu.dtb.stage2_mmu.stage2_tlb.instHits            0                       # ITB inst hits
system.cpu.dtb.stage2_mmu.stage2_tlb.instMisses            0                       # ITB inst misses
system.cpu.dtb.stage2_mmu.stage2_tlb.readHits            0                       # DTB read hits
system.cpu.dtb.stage2_mmu.stage2_tlb.readMisses            0                       # DTB read misses
system.cpu.dtb.stage2_mmu.stage2_tlb.writeHits            0                       # DTB write hits
system.cpu.dtb.stage2_mmu.stage2_tlb.writeMisses            0                       # DTB write misses
system.cpu.dtb.stage2_mmu.stage2_tlb.inserts            0                       # Number of times an entry is inserted into the TLB
system.cpu.dtb.stage2_mmu.stage2_tlb.flushTlb            0                       # Number of times complete TLB was flushed
system.cpu.dtb.stage2_mmu.stage2_tlb.flushTlbMva            0                       # Number of times TLB was flushed by MVA
system.cpu.dtb.stage2_mmu.stage2_tlb.flushTlbMvaAsid            0                       # Number of times TLB was flushed by MVA & ASID
system.cpu.dtb.stage2_mmu.stage2_tlb.flushTlbAsid            0                       # Number of times TLB was flushed by ASID
system.cpu.dtb.stage2_mmu.stage2_tlb.flushedEntries            0                       # Number of entries that have been flushed from TLB
system.cpu.dtb.stage2_mmu.stage2_tlb.alignFaults            0                       # Number of TLB faults due to alignment restrictions
system.cpu.dtb.stage2_mmu.stage2_tlb.prefetchFaults            0                       # Number of TLB faults due to prefetch
system.cpu.dtb.stage2_mmu.stage2_tlb.domainFaults            0                       # Number of TLB faults due to domain restrictions
system.cpu.dtb.stage2_mmu.stage2_tlb.permsFaults            0                       # Number of TLB faults due to permissions restrictions
system.cpu.dtb.stage2_mmu.stage2_tlb.readAccesses            0                       # DTB read accesses
system.cpu.dtb.stage2_mmu.stage2_tlb.writeAccesses            0                       # DTB write accesses
system.cpu.dtb.stage2_mmu.stage2_tlb.instAccesses            0                       # ITB inst accesses
system.cpu.dtb.stage2_mmu.stage2_tlb.hits            0                       # Total TLB (inst and data) hits
system.cpu.dtb.stage2_mmu.stage2_tlb.misses            0                       # Total TLB (inst and data) misses
system.cpu.dtb.stage2_mmu.stage2_tlb.accesses            0                       # Total TLB (inst and data) accesses
system.cpu.dtb.stage2_mmu.stage2_tlb.walker.walks            0                       # Table walker walks requested
system.cpu.dtb.stage2_mmu.stage2_tlb.walker.requestOrigin_Requested::Data            0                       # Table walker requests started/completed, data/inst
system.cpu.dtb.stage2_mmu.stage2_tlb.walker.requestOrigin_Requested::Inst            0                       # Table walker requests started/completed, data/inst
system.cpu.dtb.stage2_mmu.stage2_tlb.walker.requestOrigin_Requested::total            0                       # Table walker requests started/completed, data/inst
system.cpu.dtb.stage2_mmu.stage2_tlb.walker.requestOrigin_Completed::Data            0                       # Table walker requests started/completed, data/inst
system.cpu.dtb.stage2_mmu.stage2_tlb.walker.requestOrigin_Completed::Inst            0                       # Table walker requests started/completed, data/inst
system.cpu.dtb.stage2_mmu.stage2_tlb.walker.requestOrigin_Completed::total            0                       # Table walker requests started/completed, data/inst
system.cpu.dtb.stage2_mmu.stage2_tlb.walker.requestOrigin::total            0                       # Table walker requests started/completed, data/inst
system.cpu.dtb.stage2_mmu.stage2_tlb.walker.power_state.pwrStateResidencyTicks::UNDEFINED 166915866000                       # Cumulative time (in ticks) in various power states
system.cpu.dtb.walker.walks                         0                       # Table walker walks requested
system.cpu.dtb.walker.requestOrigin_Requested::Data            0                       # Table walker requests started/completed, data/inst
system.cpu.dtb.walker.requestOrigin_Requested::Inst            0                       # Table walker requests started/completed, data/inst
system.cpu.dtb.walker.requestOrigin_Requested::total            0                       # Table walker requests started/completed, data/inst
system.cpu.dtb.walker.requestOrigin_Completed::Data            0                       # Table walker requests started/completed, data/inst
system.cpu.dtb.walker.requestOrigin_Completed::Inst            0                       # Table walker requests started/completed, data/inst
system.cpu.dtb.walker.requestOrigin_Completed::total            0                       # Table walker requests started/completed, data/inst
system.cpu.dtb.walker.requestOrigin::total            0                       # Table walker requests started/completed, data/inst
system.cpu.dtb.walker.power_state.pwrStateResidencyTicks::UNDEFINED 166915866000                       # Cumulative time (in ticks) in various power states
system.cpu.fetch2.intInstructions            42686092                       # Number of integer instructions successfully decoded
system.cpu.fetch2.fpInstructions                    0                       # Number of floating point instructions successfully decoded
system.cpu.fetch2.vecInstructions                   0                       # Number of SIMD instructions successfully decoded
system.cpu.fetch2.loadInstructions           43475205                       # Number of memory load instructions successfully decoded
system.cpu.fetch2.storeInstructions          11024960                       # Number of memory store instructions successfully decoded
system.cpu.fetch2.amoInstructions                   0                       # Number of memory atomic instructions successfully decoded
system.cpu.icache.demand_hits::.cpu.inst     10278244                       # number of demand (read+write) hits
system.cpu.icache.demand_hits::total         10278244                       # number of demand (read+write) hits
system.cpu.icache.overall_hits::.cpu.inst     10278244                       # number of overall hits
system.cpu.icache.overall_hits::total        10278244                       # number of overall hits
system.cpu.icache.demand_misses::.cpu.inst          738                       # number of demand (read+write) misses
system.cpu.icache.demand_misses::total            738                       # number of demand (read+write) misses
system.cpu.icache.overall_misses::.cpu.inst          738                       # number of overall misses
system.cpu.icache.overall_misses::total           738                       # number of overall misses
system.cpu.icache.demand_miss_latency::.cpu.inst     71262000                       # number of demand (read+write) miss cycles
system.cpu.icache.demand_miss_latency::total     71262000                       # number of demand (read+write) miss cycles
system.cpu.icache.overall_miss_latency::.cpu.inst     71262000                       # number of overall miss cycles
system.cpu.icache.overall_miss_latency::total     71262000                       # number of overall miss cycles
system.cpu.icache.demand_accesses::.cpu.inst     10278982                       # number of demand (read+write) accesses
system.cpu.icache.demand_accesses::total     10278982                       # number of demand (read+write) accesses
system.cpu.icache.overall_accesses::.cpu.inst     10278982                       # number of overall (read+write) accesses
system.cpu.icache.overall_accesses::total     10278982                       # number of overall (read+write) accesses
system.cpu.icache.demand_miss_rate::.cpu.inst     0.000072                       # miss rate for demand accesses
system.cpu.icache.demand_miss_rate::total     0.000072                       # miss rate for demand accesses
system.cpu.icache.overall_miss_rate::.cpu.inst     0.000072                       # miss rate for overall accesses
system.cpu.icache.overall_miss_rate::total     0.000072                       # miss rate for overall accesses
system.cpu.icache.demand_avg_miss_latency::.cpu.inst 96560.975610                       # average overall miss latency
system.cpu.icache.demand_avg_miss_latency::total 96560.975610                       # average overall miss latency
system.cpu.icache.overall_avg_miss_latency::.cpu.inst 96560.975610                       # average overall miss latency
system.cpu.icache.overall_avg_miss_latency::total 96560.975610                       # average overall miss latency
system.cpu.icache.blocked_cycles::no_mshrs            0                       # number of cycles access was blocked
system.cpu.icache.blocked_cycles::no_targets            0                       # number of cycles access was blocked
system.cpu.icache.blocked::no_mshrs                 0                       # number of cycles access was blocked
system.cpu.icache.blocked::no_targets               0                       # number of cycles access was blocked
system.cpu.icache.avg_blocked_cycles::no_mshrs          nan                       # average number of cycles each access was blocked
system.cpu.icache.avg_blocked_cycles::no_targets          nan                       # average number of cycles each access was blocked
system.cpu.icache.writebacks::.writebacks          233                       # number of writebacks
system.cpu.icache.writebacks::total               233                       # number of writebacks
system.cpu.icache.demand_mshr_misses::.cpu.inst          738                       # number of demand (read+write) MSHR misses
system.cpu.icache.demand_mshr_misses::total          738                       # number of demand (read+write) MSHR misses
system.cpu.icache.overall_mshr_misses::.cpu.inst          738                       # number of overall MSHR misses
system.cpu.icache.overall_mshr_misses::total          738                       # number of overall MSHR misses
system.cpu.icache.demand_mshr_miss_latency::.cpu.inst     69786000                       # number of demand (read+write) MSHR miss cycles
system.cpu.icache.demand_mshr_miss_latency::total     69786000                       # number of demand (read+write) MSHR miss cycles
system.cpu.icache.overall_mshr_miss_latency::.cpu.inst     69786000                       # number of overall MSHR miss cycles
system.cpu.icache.overall_mshr_miss_latency::total     69786000                       # number of overall MSHR miss cycles
system.cpu.icache.demand_mshr_miss_rate::.cpu.inst     0.000072                       # mshr miss rate for demand accesses
system.cpu.icache.demand_mshr_miss_rate::total     0.000072                       # mshr miss rate for demand accesses
system.cpu.icache.overall_mshr_miss_rate::.cpu.inst     0.000072                       # mshr miss rate for overall accesses
system.cpu.icache.overall_mshr_miss_rate::total     0.000072                       # mshr miss rate for overall accesses
system.cpu.icache.demand_avg_mshr_miss_latency::.cpu.inst 94560.975610                       # average overall mshr miss latency
system.cpu.icache.demand_avg_mshr_miss_latency::total 94560.975610                       # average overall mshr miss latency
system.cpu.icache.overall_avg_mshr_miss_latency::.cpu.inst 94560.975610                       # average overall mshr miss latency
system.cpu.icache.overall_avg_mshr_miss_latency::total 94560.975610                       # average overall mshr miss latency
system.cpu.icache.replacements                    233                       # number of replacements
system.cpu.icache.ReadReq_hits::.cpu.inst     10278244                       # number of ReadReq hits
system.cpu.icache.ReadReq_hits::total        10278244                       # number of ReadReq hits
system.cpu.icache.ReadReq_misses::.cpu.inst          738                       # number of ReadReq misses
system.cpu.icache.ReadReq_misses::total           738                       # number of ReadReq misses
system.cpu.icache.ReadReq_miss_latency::.cpu.inst     71262000                       # number of ReadReq miss cycles
system.cpu.icache.ReadReq_miss_latency::total     71262000                       # number of ReadReq miss cycles
system.cpu.icache.ReadReq_accesses::.cpu.inst     10278982                       # number of ReadReq accesses(hits+misses)
system.cpu.icache.ReadReq_accesses::total     10278982                       # number of ReadReq accesses(hits+misses)
system.cpu.icache.ReadReq_miss_rate::.cpu.inst     0.000072                       # miss rate for ReadReq accesses
system.cpu.icache.ReadReq_miss_rate::total     0.000072                       # miss rate for ReadReq accesses
system.cpu.icache.ReadReq_avg_miss_latency::.cpu.inst 96560.975610                       # average ReadReq miss latency
system.cpu.icache.ReadReq_avg_miss_latency::total 96560.975610                       # average ReadReq miss latency
system.cpu.icache.ReadReq_mshr_misses::.cpu.inst          738                       # number of ReadReq MSHR misses
system.cpu.icache.ReadReq_mshr_misses::total          738                       # number of ReadReq MSHR misses
system.cpu.icache.ReadReq_mshr_miss_latency::.cpu.inst     69786000                       # number of ReadReq MSHR miss cycles
system.cpu.icache.ReadReq_mshr_miss_latency::total     69786000                       # number of ReadReq MSHR miss cycles
system.cpu.icache.ReadReq_mshr_miss_rate::.cpu.inst     0.000072                       # mshr miss rate for ReadReq accesses
system.cpu.icache.ReadReq_mshr_miss_rate::total     0.000072                       # mshr miss rate for ReadReq accesses
system.cpu.icache.ReadReq_avg_mshr_miss_latency::.cpu.inst 94560.975610                       # average ReadReq mshr miss latency
system.cpu.icache.ReadReq_avg_mshr_miss_latency::total 94560.975610                       # average ReadReq mshr miss latency
system.cpu.icache.power_state.pwrStateResidencyTicks::UNDEFINED 166915866000                       # Cumulative time (in ticks) in various power states
system.cpu.icache.tags.tagsinuse           410.489071                       # Cycle average of tags in use
system.cpu.icache.tags.total_refs            10278982                       # Total number of references to valid blocks.
system.cpu.icache.tags.sampled_refs               738                       # Sample count of references to valid blocks.
system.cpu.icache.tags.avg_refs          13928.159892                       # Average number of references to valid blocks.
system.cpu.icache.tags.warmup_cycle            108000                       # Cycle when the warmup percentage was hit.
system.cpu.icache.tags.occ_blocks::.cpu.inst   410.489071                       # Average occupied blocks per requestor
system.cpu.icache.tags.occ_percent::.cpu.inst     0.400868                       # Average percentage of cache occupancy
system.cpu.icache.tags.occ_percent::total     0.400868                       # Average percentage of cache occupancy
system.cpu.icache.tags.occ_task_id_blocks::1024          505                       # Occupied blocks per task id
system.cpu.icache.tags.age_task_id_blocks_1024::4          505                       # Occupied blocks per task id
system.cpu.icache.tags.occ_task_id_percent::1024     0.493164                       # Percentage of cache occupancy per task id
system.cpu.icache.tags.tag_accesses          10279720                       # Number of tag accesses
system.cpu.icache.tags.data_accesses         10279720                       # Number of data accesses
system.cpu.icache.tags.power_state.pwrStateResidencyTicks::UNDEFINED 166915866000                       # Cumulative time (in ticks) in various power states
system.cpu.itb.instHits                             0                       # ITB inst hits
system.cpu.itb.instMisses                           0                       # ITB inst misses
system.cpu.itb.readHits                             0                       # DTB read hits
system.cpu.itb.readMisses                           0                       # DTB read misses
system.cpu.itb.writeHits                            0                       # DTB write hits
system.cpu.itb.writeMisses                          0                       # DTB write misses
system.cpu.itb.inserts                              0                       # Number of times an entry is inserted into the TLB
system.cpu.itb.flushTlb                             0                       # Number of times complete TLB was flushed
system.cpu.itb.flushTlbMva                          0                       # Number of times TLB was flushed by MVA
system.cpu.itb.flushTlbMvaAsid                      0                       # Number of times TLB was flushed by MVA & ASID
system.cpu.itb.flushTlbAsid                         0                       # Number of times TLB was flushed by ASID
system.cpu.itb.flushedEntries                       0                       # Number of entries that have been flushed from TLB
system.cpu.itb.alignFaults                          0                       # Number of TLB faults due to alignment restrictions
system.cpu.itb.prefetchFaults                       0                       # Number of TLB faults due to prefetch
system.cpu.itb.domainFaults                         0                       # Number of TLB faults due to domain restrictions
system.cpu.itb.permsFaults                          0                       # Number of TLB faults due to permissions restrictions
system.cpu.itb.readAccesses                         0                       # DTB read accesses
system.cpu.itb.writeAccesses                        0                       # DTB write accesses
system.cpu.itb.instAccesses                         0                       # ITB inst accesses
system.cpu.itb.hits                                 0                       # Total TLB (inst and data) hits
system.cpu.itb.misses                               0                       # Total TLB (inst and data) misses
system.cpu.itb.accesses                             0                       # Total TLB (inst and data) accesses
system.cpu.itb.stage2_mmu.stage2_tlb.instHits            0                       # ITB inst hits
system.cpu.itb.stage2_mmu.stage2_tlb.instMisses            0                       # ITB inst misses
system.cpu.itb.stage2_mmu.stage2_tlb.readHits            0                       # DTB read hits
system.cpu.itb.stage2_mmu.stage2_tlb.readMisses            0                       # DTB read misses
system.cpu.itb.stage2_mmu.stage2_tlb.writeHits            0                       # DTB write hits
system.cpu.itb.stage2_mmu.stage2_tlb.writeMisses            0                       # DTB write misses
system.cpu.itb.stage2_mmu.stage2_tlb.inserts            0                       # Number of times an entry is inserted into the TLB
system.cpu.itb.stage2_mmu.stage2_tlb.flushTlb            0                       # Number of times complete TLB was flushed
system.cpu.itb.stage2_mmu.stage2_tlb.flushTlbMva            0                       # Number of times TLB was flushed by MVA
system.cpu.itb.stage2_mmu.stage2_tlb.flushTlbMvaAsid            0                       # Number of times TLB was flushed by MVA & ASID
system.cpu.itb.stage2_mmu.stage2_tlb.flushTlbAsid            0                       # Number of times TLB was flushed by ASID
system.cpu.itb.stage2_mmu.stage2_tlb.flushedEntries            0                       # Number of entries that have been flushed from TLB
system.cpu.itb.stage2_mmu.stage2_tlb.alignFaults            0                       # Number of TLB faults due to alignment restrictions
system.cpu.itb.stage2_mmu.stage2_tlb.prefetchFaults            0                       # Number of TLB faults due to prefetch
system.cpu.itb.stage2_mmu.stage2_tlb.domainFaults            0                       # Number of TLB faults due to domain restrictions
system.cpu.itb.stage2_mmu.stage2_tlb.permsFaults            0                       # Number of TLB faults due to permissions restrictions
system.cpu.itb.stage2_mmu.stage2_tlb.readAccesses            0                       # DTB read accesses
system.cpu.itb.stage2_mmu.stage2_tlb.writeAccesses            0                       # DTB write accesses
system.cpu.itb.stage2_mmu.stage2_tlb.instAccesses            0                       # ITB inst accesses
system.cpu.itb.stage2_mmu.stage2_tlb.hits            0                       # Total TLB (inst and data) hits
system.cpu.itb.stage2_mmu.stage2_tlb.misses            0                       # Total TLB (inst and data) misses
system.cpu.itb.stage2_mmu.stage2_tlb.accesses            0                       # Total TLB (inst and data) accesses
system.cpu.itb.stage2_mmu.stage2_tlb.walker.walks            0                       # Table walker walks requested
system.cpu.itb.stage2_mmu.stage2_tlb.walker.requestOrigin_Requested::Data            0                       # Table walker requests started/completed, data/inst
system.cpu.itb.stage2_mmu.stage2_tlb.walker.requestOrigin_Requested::Inst            0                       # Table walker requests started/completed, data/inst
system.cpu.itb.stage2_mmu.stage2_tlb.walker.requestOrigin_Requested::total            0                       # Table walker requests started/completed, data/inst
system.cpu.itb.stage2_mmu.stage2_tlb.walker.requestOrigin_Completed::Data            0                       # Table walker requests started/completed, data/inst
system.cpu.itb.stage2_mmu.stage2_tlb.walker.requestOrigin_Completed::Inst            0                       # Table walker requests started/completed, data/inst
system.cpu.itb.stage2_mmu.stage2_tlb.walker.requestOrigin_Completed::total            0                       # Table walker requests started/completed, data/inst
system.cpu.itb.stage2_mmu.stage2_tlb.walker.requestOrigin::total            0                       # Table walker requests started/completed, data/inst
system.cpu.itb.stage2_mmu.stage2_tlb.walker.power_state.pwrStateResidencyTicks::UNDEFINED 166915866000                       # Cumulative time (in ticks) in various power states
system.cpu.itb.walker.walks                         0                       # Table walker walks requested
system.cpu.itb.walker.requestOrigin_Requested::Data            0                       # Table walker requests started/completed, data/inst
system.cpu.itb.walker.requestOrigin_Requested::Inst            0                       # Table walker requests started/completed, data/inst
system.cpu.itb.walker.requestOrigin_Requested::total            0                       # Table walker requests started/completed, data/inst
system.cpu.itb.walker.requestOrigin_Completed::Data            0                       # Table walker requests started/completed, data/inst
system.cpu.itb.walker.requestOrigin_Completed::Inst            0                       # Table walker requests started/completed, data/inst
system.cpu.itb.walker.requestOrigin_Completed::total            0                       # Table walker requests started/completed, data/inst
system.cpu.itb.walker.requestOrigin::total            0                       # Table walker requests started/completed, data/inst
system.cpu.itb.walker.power_state.pwrStateResidencyTicks::UNDEFINED 166915866000                       # Cumulative time (in ticks) in various power states
system.cpu.power_state.pwrStateResidencyTicks::ON 166915866000                       # Cumulative time (in ticks) in various power states
system.cpu.thread_0.numInsts                100000001                       # Number of Instructions committed
system.cpu.thread_0.numOps                  100196356                       # Number of Ops committed
system.cpu.thread_0.numMemRefs                      0                       # Number of Memory References
system.cpu_clk_domain.clock                      1000                       # Clock period in ticks
system.cpu_voltage_domain.voltage                   1                       # Voltage in Volts
system.l2.demand_hits::.cpu.inst                   70                       # number of demand (read+write) hits
system.l2.demand_hits::.cpu.data               494582                       # number of demand (read+write) hits
system.l2.demand_hits::total                   494652                       # number of demand (read+write) hits
system.l2.overall_hits::.cpu.inst                  70                       # number of overall hits
system.l2.overall_hits::.cpu.data              494582                       # number of overall hits
system.l2.overall_hits::total                  494652                       # number of overall hits
system.l2.demand_misses::.cpu.inst                668                       # number of demand (read+write) misses
system.l2.demand_misses::.cpu.data             286666                       # number of demand (read+write) misses
system.l2.demand_misses::total                 287334                       # number of demand (read+write) misses
system.l2.overall_misses::.cpu.inst               668                       # number of overall misses
system.l2.overall_misses::.cpu.data            286666                       # number of overall misses
system.l2.overall_misses::total                287334                       # number of overall misses
system.l2.demand_miss_latency::.cpu.inst     66059000                       # number of demand (read+write) miss cycles
system.l2.demand_miss_latency::.cpu.data  30561097000                       # number of demand (read+write) miss cycles
system.l2.demand_miss_latency::total      30627156000                       # number of demand (read+write) miss cycles
system.l2.overall_miss_latency::.cpu.inst     66059000                       # number of overall miss cycles
system.l2.overall_miss_latency::.cpu.data  30561097000                       # number of overall miss cycles
system.l2.overall_miss_latency::total     30627156000                       # number of overall miss cycles
system.l2.demand_accesses::.cpu.inst              738                       # number of demand (read+write) accesses
system.l2.demand_accesses::.cpu.data           781248                       # number of demand (read+write) accesses
system.l2.demand_accesses::total               781986                       # number of demand (read+write) accesses
system.l2.overall_accesses::.cpu.inst             738                       # number of overall (read+write) accesses
system.l2.overall_accesses::.cpu.data          781248                       # number of overall (read+write) accesses
system.l2.overall_accesses::total              781986                       # number of overall (read+write) accesses
system.l2.demand_miss_rate::.cpu.inst        0.905149                       # miss rate for demand accesses
system.l2.demand_miss_rate::.cpu.data        0.366933                       # miss rate for demand accesses
system.l2.demand_miss_rate::total            0.367441                       # miss rate for demand accesses
system.l2.overall_miss_rate::.cpu.inst       0.905149                       # miss rate for overall accesses
system.l2.overall_miss_rate::.cpu.data       0.366933                       # miss rate for overall accesses
system.l2.overall_miss_rate::total           0.367441                       # miss rate for overall accesses
system.l2.demand_avg_miss_latency::.cpu.inst 98890.718563                       # average overall miss latency
system.l2.demand_avg_miss_latency::.cpu.data 106608.725834                       # average overall miss latency
system.l2.demand_avg_miss_latency::total 106590.782852                       # average overall miss latency
system.l2.overall_avg_miss_latency::.cpu.inst 98890.718563                       # average overall miss latency
system.l2.overall_avg_miss_latency::.cpu.data 106608.725834                       # average overall miss latency
system.l2.overall_avg_miss_latency::total 106590.782852                       # average overall miss latency
system.l2.blocked_cycles::no_mshrs                  0                       # number of cycles access was blocked
system.l2.blocked_cycles::no_targets                0                       # number of cycles access was blocked
system.l2.blocked::no_mshrs                         0                       # number of cycles access was blocked
system.l2.blocked::no_targets                       0                       # number of cycles access was blocked
system.l2.avg_blocked_cycles::no_mshrs            nan                       # average number of cycles each access was blocked
system.l2.avg_blocked_cycles::no_targets          nan                       # average number of cycles each access was blocked
system.l2.writebacks::.writebacks              199649                       # number of writebacks
system.l2.writebacks::total                    199649                       # number of writebacks
system.l2.demand_mshr_hits::.cpu.data               6                       # number of demand (read+write) MSHR hits
system.l2.demand_mshr_hits::total                   6                       # number of demand (read+write) MSHR hits
system.l2.overall_mshr_hits::.cpu.data              6                       # number of overall MSHR hits
system.l2.overall_mshr_hits::total                  6                       # number of overall MSHR hits
system.l2.demand_mshr_misses::.cpu.inst           668                       # number of demand (read+write) MSHR misses
system.l2.demand_mshr_misses::.cpu.data        286660                       # number of demand (read+write) MSHR misses
system.l2.demand_mshr_misses::total            287328                       # number of demand (read+write) MSHR misses
system.l2.overall_mshr_misses::.cpu.inst          668                       # number of overall MSHR misses
system.l2.overall_mshr_misses::.cpu.data       286660                       # number of overall MSHR misses
system.l2.overall_mshr_misses::total           287328                       # number of overall MSHR misses
system.l2.demand_mshr_miss_latency::.cpu.inst     52699000                       # number of demand (read+write) MSHR miss cycles
system.l2.demand_mshr_miss_latency::.cpu.data  24827437000                       # number of demand (read+write) MSHR miss cycles
system.l2.demand_mshr_miss_latency::total  24880136000                       # number of demand (read+write) MSHR miss cycles
system.l2.overall_mshr_miss_latency::.cpu.inst     52699000                       # number of overall MSHR miss cycles
system.l2.overall_mshr_miss_latency::.cpu.data  24827437000                       # number of overall MSHR miss cycles
system.l2.overall_mshr_miss_latency::total  24880136000                       # number of overall MSHR miss cycles
system.l2.demand_mshr_miss_rate::.cpu.inst     0.905149                       # mshr miss rate for demand accesses
system.l2.demand_mshr_miss_rate::.cpu.data     0.366926                       # mshr miss rate for demand accesses
system.l2.demand_mshr_miss_rate::total       0.367434                       # mshr miss rate for demand accesses
system.l2.overall_mshr_miss_rate::.cpu.inst     0.905149                       # mshr miss rate for overall accesses
system.l2.overall_mshr_miss_rate::.cpu.data     0.366926                       # mshr miss rate for overall accesses
system.l2.overall_mshr_miss_rate::total      0.367434                       # mshr miss rate for overall accesses
system.l2.demand_avg_mshr_miss_latency::.cpu.inst 78890.718563                       # average overall mshr miss latency
system.l2.demand_avg_mshr_miss_latency::.cpu.data 86609.352543                       # average overall mshr miss latency
system.l2.demand_avg_mshr_miss_latency::total 86591.407729                       # average overall mshr miss latency
system.l2.overall_avg_mshr_miss_latency::.cpu.inst 78890.718563                       # average overall mshr miss latency
system.l2.overall_avg_mshr_miss_latency::.cpu.data 86609.352543                       # average overall mshr miss latency
system.l2.overall_avg_mshr_miss_latency::total 86591.407729                       # average overall mshr miss latency
system.l2.replacements                         288143                       # number of replacements
system.l2.WritebackDirty_hits::.writebacks       679925                       # number of WritebackDirty hits
system.l2.WritebackDirty_hits::total           679925                       # number of WritebackDirty hits
system.l2.WritebackDirty_accesses::.writebacks       679925                       # number of WritebackDirty accesses(hits+misses)
system.l2.WritebackDirty_accesses::total       679925                       # number of WritebackDirty accesses(hits+misses)
system.l2.WritebackClean_hits::.writebacks          221                       # number of WritebackClean hits
system.l2.WritebackClean_hits::total              221                       # number of WritebackClean hits
system.l2.WritebackClean_accesses::.writebacks          221                       # number of WritebackClean accesses(hits+misses)
system.l2.WritebackClean_accesses::total          221                       # number of WritebackClean accesses(hits+misses)
system.l2.CleanEvict_mshr_misses::.writebacks         4665                       # number of CleanEvict MSHR misses
system.l2.CleanEvict_mshr_misses::total          4665                       # number of CleanEvict MSHR misses
system.l2.CleanEvict_mshr_miss_rate::.writebacks          inf                       # mshr miss rate for CleanEvict accesses
system.l2.CleanEvict_mshr_miss_rate::total          inf                       # mshr miss rate for CleanEvict accesses
system.l2.ReadExReq_hits::.cpu.data            145490                       # number of ReadExReq hits
system.l2.ReadExReq_hits::total                145490                       # number of ReadExReq hits
system.l2.ReadExReq_misses::.cpu.data          176824                       # number of ReadExReq misses
system.l2.ReadExReq_misses::total              176824                       # number of ReadExReq misses
system.l2.ReadExReq_miss_latency::.cpu.data  19204345000                       # number of ReadExReq miss cycles
system.l2.ReadExReq_miss_latency::total   19204345000                       # number of ReadExReq miss cycles
system.l2.ReadExReq_accesses::.cpu.data        322314                       # number of ReadExReq accesses(hits+misses)
system.l2.ReadExReq_accesses::total            322314                       # number of ReadExReq accesses(hits+misses)
system.l2.ReadExReq_miss_rate::.cpu.data     0.548608                       # miss rate for ReadExReq accesses
system.l2.ReadExReq_miss_rate::total         0.548608                       # miss rate for ReadExReq accesses
system.l2.ReadExReq_avg_miss_latency::.cpu.data 108607.117812                       # average ReadExReq miss latency
system.l2.ReadExReq_avg_miss_latency::total 108607.117812                       # average ReadExReq miss latency
system.l2.ReadExReq_mshr_misses::.cpu.data       176824                       # number of ReadExReq MSHR misses
system.l2.ReadExReq_mshr_misses::total         176824                       # number of ReadExReq MSHR misses
system.l2.ReadExReq_mshr_miss_latency::.cpu.data  15667865000                       # number of ReadExReq MSHR miss cycles
system.l2.ReadExReq_mshr_miss_latency::total  15667865000                       # number of ReadExReq MSHR miss cycles
system.l2.ReadExReq_mshr_miss_rate::.cpu.data     0.548608                       # mshr miss rate for ReadExReq accesses
system.l2.ReadExReq_mshr_miss_rate::total     0.548608                       # mshr miss rate for ReadExReq accesses
system.l2.ReadExReq_avg_mshr_miss_latency::.cpu.data 88607.117812                       # average ReadExReq mshr miss latency
system.l2.ReadExReq_avg_mshr_miss_latency::total 88607.117812                       # average ReadExReq mshr miss latency
system.l2.ReadCleanReq_hits::.cpu.inst             70                       # number of ReadCleanReq hits
system.l2.ReadCleanReq_hits::total                 70                       # number of ReadCleanReq hits
system.l2.ReadCleanReq_misses::.cpu.inst          668                       # number of ReadCleanReq misses
system.l2.ReadCleanReq_misses::total              668                       # number of ReadCleanReq misses
system.l2.ReadCleanReq_miss_latency::.cpu.inst     66059000                       # number of ReadCleanReq miss cycles
system.l2.ReadCleanReq_miss_latency::total     66059000                       # number of ReadCleanReq miss cycles
system.l2.ReadCleanReq_accesses::.cpu.inst          738                       # number of ReadCleanReq accesses(hits+misses)
system.l2.ReadCleanReq_accesses::total            738                       # number of ReadCleanReq accesses(hits+misses)
system.l2.ReadCleanReq_miss_rate::.cpu.inst     0.905149                       # miss rate for ReadCleanReq accesses
system.l2.ReadCleanReq_miss_rate::total      0.905149                       # miss rate for ReadCleanReq accesses
system.l2.ReadCleanReq_avg_miss_latency::.cpu.inst 98890.718563                       # average ReadCleanReq miss latency
system.l2.ReadCleanReq_avg_miss_latency::total 98890.718563                       # average ReadCleanReq miss latency
system.l2.ReadCleanReq_mshr_misses::.cpu.inst          668                       # number of ReadCleanReq MSHR misses
system.l2.ReadCleanReq_mshr_misses::total          668                       # number of ReadCleanReq MSHR misses
system.l2.ReadCleanReq_mshr_miss_latency::.cpu.inst     52699000                       # number of ReadCleanReq MSHR miss cycles
system.l2.ReadCleanReq_mshr_miss_latency::total     52699000                       # number of ReadCleanReq MSHR miss cycles
system.l2.ReadCleanReq_mshr_miss_rate::.cpu.inst     0.905149                       # mshr miss rate for ReadCleanReq accesses
system.l2.ReadCleanReq_mshr_miss_rate::total     0.905149                       # mshr miss rate for ReadCleanReq accesses
system.l2.ReadCleanReq_avg_mshr_miss_latency::.cpu.inst 78890.718563                       # average ReadCleanReq mshr miss latency
system.l2.ReadCleanReq_avg_mshr_miss_latency::total 78890.718563                       # average ReadCleanReq mshr miss latency
system.l2.ReadSharedReq_hits::.cpu.data        349092                       # number of ReadSharedReq hits
system.l2.ReadSharedReq_hits::total            349092                       # number of ReadSharedReq hits
system.l2.ReadSharedReq_misses::.cpu.data       109842                       # number of ReadSharedReq misses
system.l2.ReadSharedReq_misses::total          109842                       # number of ReadSharedReq misses
system.l2.ReadSharedReq_miss_latency::.cpu.data  11356752000                       # number of ReadSharedReq miss cycles
system.l2.ReadSharedReq_miss_latency::total  11356752000                       # number of ReadSharedReq miss cycles
system.l2.ReadSharedReq_accesses::.cpu.data       458934                       # number of ReadSharedReq accesses(hits+misses)
system.l2.ReadSharedReq_accesses::total        458934                       # number of ReadSharedReq accesses(hits+misses)
system.l2.ReadSharedReq_miss_rate::.cpu.data     0.239342                       # miss rate for ReadSharedReq accesses
system.l2.ReadSharedReq_miss_rate::total     0.239342                       # miss rate for ReadSharedReq accesses
system.l2.ReadSharedReq_avg_miss_latency::.cpu.data 103391.708090                       # average ReadSharedReq miss latency
system.l2.ReadSharedReq_avg_miss_latency::total 103391.708090                       # average ReadSharedReq miss latency
system.l2.ReadSharedReq_mshr_hits::.cpu.data            6                       # number of ReadSharedReq MSHR hits
system.l2.ReadSharedReq_mshr_hits::total            6                       # number of ReadSharedReq MSHR hits
system.l2.ReadSharedReq_mshr_misses::.cpu.data       109836                       # number of ReadSharedReq MSHR misses
system.l2.ReadSharedReq_mshr_misses::total       109836                       # number of ReadSharedReq MSHR misses
system.l2.ReadSharedReq_mshr_miss_latency::.cpu.data   9159572000                       # number of ReadSharedReq MSHR miss cycles
system.l2.ReadSharedReq_mshr_miss_latency::total   9159572000                       # number of ReadSharedReq MSHR miss cycles
system.l2.ReadSharedReq_mshr_miss_rate::.cpu.data     0.239329                       # mshr miss rate for ReadSharedReq accesses
system.l2.ReadSharedReq_mshr_miss_rate::total     0.239329                       # mshr miss rate for ReadSharedReq accesses
system.l2.ReadSharedReq_avg_mshr_miss_latency::.cpu.data 83393.167996                       # average ReadSharedReq mshr miss latency
system.l2.ReadSharedReq_avg_mshr_miss_latency::total 83393.167996                       # average ReadSharedReq mshr miss latency
system.l2.power_state.pwrStateResidencyTicks::UNDEFINED 166915866000                       # Cumulative time (in ticks) in various power states
system.l2.tags.tagsinuse                  8085.055214                       # Cycle average of tags in use
system.l2.tags.total_refs                     1557108                       # Total number of references to valid blocks.
system.l2.tags.sampled_refs                    296335                       # Sample count of references to valid blocks.
system.l2.tags.avg_refs                      5.254553                       # Average number of references to valid blocks.
system.l2.tags.warmup_cycle                     87000                       # Cycle when the warmup percentage was hit.
system.l2.tags.occ_blocks::.writebacks     175.025685                       # Average occupied blocks per requestor
system.l2.tags.occ_blocks::.cpu.inst        16.242872                       # Average occupied blocks per requestor
system.l2.tags.occ_blocks::.cpu.data      7893.786657                       # Average occupied blocks per requestor
system.l2.tags.occ_percent::.writebacks      0.021365                       # Average percentage of cache occupancy
system.l2.tags.occ_percent::.cpu.inst        0.001983                       # Average percentage of cache occupancy
system.l2.tags.occ_percent::.cpu.data        0.963597                       # Average percentage of cache occupancy
system.l2.tags.occ_percent::total            0.986945                       # Average percentage of cache occupancy
system.l2.tags.occ_task_id_blocks::1024          8192                       # Occupied blocks per task id
system.l2.tags.age_task_id_blocks_1024::1          227                       # Occupied blocks per task id
system.l2.tags.age_task_id_blocks_1024::2         2326                       # Occupied blocks per task id
system.l2.tags.age_task_id_blocks_1024::3         5067                       # Occupied blocks per task id
system.l2.tags.age_task_id_blocks_1024::4          572                       # Occupied blocks per task id
system.l2.tags.occ_task_id_percent::1024            1                       # Percentage of cache occupancy per task id
system.l2.tags.tag_accesses                   3419893                       # Number of tag accesses
system.l2.tags.data_accesses                  3419893                       # Number of data accesses
system.l2.tags.power_state.pwrStateResidencyTicks::UNDEFINED 166915866000                       # Cumulative time (in ticks) in various power states
system.mem_ctrls.avgPriority_.writebacks::samples    199625.00                       # Average QoS priority value for accepted requests
system.mem_ctrls.avgPriority_.cpu.inst::samples       668.00                       # Average QoS priority value for accepted requests
system.mem_ctrls.avgPriority_.cpu.data::samples    285721.00                       # Average QoS priority value for accepted requests
system.mem_ctrls.priorityMinLatency      0.000000018750                       # per QoS priority minimum request to response latency (s)
system.mem_ctrls.priorityMaxLatency      0.005689964500                       # per QoS priority maximum request to response latency (s)
system.mem_ctrls.numReadWriteTurnArounds        11701                       # Number of turnarounds from READ to WRITE
system.mem_ctrls.numWriteReadTurnArounds        11701                       # Number of turnarounds from WRITE to READ
system.mem_ctrls.numStayReadState              802707                       # Number of times bus staying in READ state
system.mem_ctrls.numStayWriteState             188169                       # Number of times bus staying in WRITE state
system.mem_ctrls.readReqs                      287328                       # Number of read requests accepted
system.mem_ctrls.writeReqs                     199649                       # Number of write requests accepted
system.mem_ctrls.readBursts                    287328                       # Number of controller read bursts, including those serviced by the write queue
system.mem_ctrls.writeBursts                   199649                       # Number of controller write bursts, including those merged in the write queue
system.mem_ctrls.servicedByWrQ                    939                       # Number of controller read bursts serviced by the write queue
system.mem_ctrls.mergedWrBursts                    24                       # Number of controller write bursts merged with an existing one
system.mem_ctrls.neitherReadNorWriteReqs            0                       # Number of requests that are neither read nor write
system.mem_ctrls.avgRdQLen                       1.05                       # Average read queue length when enqueuing
system.mem_ctrls.avgWrQLen                      24.55                       # Average write queue length when enqueuing
system.mem_ctrls.numRdRetry                         0                       # Number of times read queue was full causing retry
system.mem_ctrls.numWrRetry                         0                       # Number of times write queue was full causing retry
system.mem_ctrls.readPktSize::0                     0                       # Read request sizes (log2)
system.mem_ctrls.readPktSize::1                     0                       # Read request sizes (log2)
system.mem_ctrls.readPktSize::2                     0                       # Read request sizes (log2)
system.mem_ctrls.readPktSize::3                     0                       # Read request sizes (log2)
system.mem_ctrls.readPktSize::4                     0                       # Read request sizes (log2)
system.mem_ctrls.readPktSize::5                     0                       # Read request sizes (log2)
system.mem_ctrls.readPktSize::6                287328                       # Read request sizes (log2)
system.mem_ctrls.writePktSize::0                    0                       # Write request sizes (log2)
system.mem_ctrls.writePktSize::1                    0                       # Write request sizes (log2)
system.mem_ctrls.writePktSize::2                    0                       # Write request sizes (log2)
system.mem_ctrls.writePktSize::3                    0                       # Write request sizes (log2)
system.mem_ctrls.writePktSize::4                    0                       # Write request sizes (log2)
system.mem_ctrls.writePktSize::5                    0                       # Write request sizes (log2)
system.mem_ctrls.writePktSize::6               199649                       # Write request sizes (log2)
system.mem_ctrls.rdQLenPdf::0                  231622                       # What read queue length does an incoming req see
system.mem_ctrls.rdQLenPdf::1                   54488                       # What read queue length does an incoming req see
system.mem_ctrls.rdQLenPdf::2                     157                       # What read queue length does an incoming req see
system.mem_ctrls.rdQLenPdf::3                     121                       # What read queue length does an incoming req see
system.mem_ctrls.rdQLenPdf::4                       1                       # What read queue length does an incoming req see
system.mem_ctrls.rdQLenPdf::5                       0                       # What read queue length does an incoming req see
system.mem_ctrls.rdQLenPdf::6                       0                       # What read queue length does an incoming req see
system.mem_ctrls.rdQLenPdf::7                       0                       # What read queue length does an incoming req see
system.mem_ctrls.rdQLenPdf::8                       0                       # What read queue length does an incoming req see
[...]
system.mem_ctrls.dram.bw_write::.writebacks     76550758                       # Write bandwidth from this memory (bytes/s)
system.mem_ctrls.dram.bw_write::total        76550758                       # Write bandwidth from this memory (bytes/s)
system.mem_ctrls.dram.bw_total::.writebacks     76550758                       # Total bandwidth to/from this memory (bytes/s)
system.mem_ctrls.dram.bw_total::.cpu.inst       256129                       # Total bandwidth to/from this memory (bytes/s)
system.mem_ctrls.dram.bw_total::.cpu.data    109913098                       # Total bandwidth to/from this memory (bytes/s)
system.mem_ctrls.dram.bw_total::total       186719985                       # Total bandwidth to/from this memory (bytes/s)
system.mem_ctrls.dram.readBursts               286389                       # Number of DRAM read bursts
system.mem_ctrls.dram.writeBursts              199599                       # Number of DRAM write bursts
system.mem_ctrls.dram.perBankRdBursts::0        17419                       # Per bank write bursts
system.mem_ctrls.dram.perBankRdBursts::1        17634                       # Per bank write bursts
system.mem_ctrls.dram.perBankRdBursts::2        17361                       # Per bank write bursts
system.mem_ctrls.dram.perBankRdBursts::3        17184                       # Per bank write bursts
system.mem_ctrls.dram.perBankRdBursts::4        18331                       # Per bank write bursts
system.mem_ctrls.dram.perBankRdBursts::5        17167                       # Per bank write bursts
system.mem_ctrls.dram.perBankRdBursts::6        18152                       # Per bank write bursts
system.mem_ctrls.dram.perBankRdBursts::7        18894                       # Per bank write bursts
system.mem_ctrls.dram.perBankRdBursts::8        19136                       # Per bank write bursts
system.mem_ctrls.dram.perBankRdBursts::9        17681                       # Per bank write bursts
system.mem_ctrls.dram.perBankRdBursts::10        16486                       # Per bank write bursts
system.mem_ctrls.dram.perBankRdBursts::11        18962                       # Per bank write bursts
system.mem_ctrls.dram.perBankRdBursts::12        17441                       # Per bank write bursts
system.mem_ctrls.dram.perBankRdBursts::13        18339                       # Per bank write bursts
system.mem_ctrls.dram.perBankRdBursts::14        18160                       # Per bank write bursts
system.mem_ctrls.dram.perBankRdBursts::15        18042                       # Per bank write bursts
system.mem_ctrls.dram.perBankWrBursts::0        11792                       # Per bank write bursts
system.mem_ctrls.dram.perBankWrBursts::1        12053                       # Per bank write bursts
system.mem_ctrls.dram.perBankWrBursts::2        11826                       # Per bank write bursts
system.mem_ctrls.dram.perBankWrBursts::3        11710                       # Per bank write bursts
system.mem_ctrls.dram.perBankWrBursts::4        12758                       # Per bank write bursts
system.mem_ctrls.dram.perBankWrBursts::5        11988                       # Per bank write bursts
system.mem_ctrls.dram.perBankWrBursts::6        12834                       # Per bank write bursts
system.mem_ctrls.dram.perBankWrBursts::7        13575                       # Per bank write bursts
system.mem_ctrls.dram.perBankWrBursts::8        13872                       # Per bank write bursts
system.mem_ctrls.dram.perBankWrBursts::9        12611                       # Per bank write bursts
system.mem_ctrls.dram.perBankWrBursts::10        11166                       # Per bank write bursts
system.mem_ctrls.dram.perBankWrBursts::11        13611                       # Per bank write bursts
system.mem_ctrls.dram.perBankWrBursts::12        11854                       # Per bank write bursts
system.mem_ctrls.dram.perBankWrBursts::13        12785                       # Per bank write bursts
system.mem_ctrls.dram.perBankWrBursts::14        12593                       # Per bank write bursts
system.mem_ctrls.dram.perBankWrBursts::15        12571                       # Per bank write bursts
system.mem_ctrls.dram.totQLat              4729957500                       # Total ticks spent queuing
system.mem_ctrls.dram.totBusLat            1431945000                       # Total ticks spent in databus transfers
system.mem_ctrls.dram.totMemAccLat        10099751250                       # Total ticks spent from burst creation until serviced by the DRAM
system.mem_ctrls.dram.avgQLat                16515.85                       # Average queueing delay per DRAM burst
system.mem_ctrls.dram.avgBusLat               5000.00                       # Average bus latency per DRAM burst
system.mem_ctrls.dram.avgMemAccLat           35265.85                       # Average memory access latency per DRAM burst
system.mem_ctrls.dram.readRowHits              145911                       # Number of row buffer hits during reads
system.mem_ctrls.dram.writeRowHits             101923                       # Number of row buffer hits during writes
system.mem_ctrls.dram.readRowHitRate            50.95                       # Row buffer hit rate for reads
system.mem_ctrls.dram.writeRowHitRate           51.06                       # Row buffer hit rate for writes
system.mem_ctrls.dram.bytesPerActivate::samples       238154                       # Bytes accessed per row activation
system.mem_ctrls.dram.bytesPerActivate::mean   130.601342                       # Bytes accessed per row activation
system.mem_ctrls.dram.bytesPerActivate::gmean    88.221660                       # Bytes accessed per row activation
system.mem_ctrls.dram.bytesPerActivate::stdev   188.443388                       # Bytes accessed per row activation
system.mem_ctrls.dram.bytesPerActivate::0-127       183627     77.10%     77.10% # Bytes accessed per row activation
system.mem_ctrls.dram.bytesPerActivate::128-255        29251     12.28%     89.39% # Bytes accessed per row activation
system.mem_ctrls.dram.bytesPerActivate::256-383         5960      2.50%     91.89% # Bytes accessed per row activation
system.mem_ctrls.dram.bytesPerActivate::384-511         1627      0.68%     92.57% # Bytes accessed per row activation
system.mem_ctrls.dram.bytesPerActivate::512-639         9283      3.90%     96.47% # Bytes accessed per row activation
system.mem_ctrls.dram.bytesPerActivate::640-767          894      0.38%     96.85% # Bytes accessed per row activation
system.mem_ctrls.dram.bytesPerActivate::768-895          585      0.25%     97.09% # Bytes accessed per row activation
system.mem_ctrls.dram.bytesPerActivate::896-1023          541      0.23%     97.32% # Bytes accessed per row activation
system.mem_ctrls.dram.bytesPerActivate::1024-1151         6386      2.68%    100.00% # Bytes accessed per row activation
system.mem_ctrls.dram.bytesPerActivate::total       238154                       # Bytes accessed per row activation
system.mem_ctrls.dram.bytesRead              18328896                       # Total number of bytes read from DRAM
system.mem_ctrls.dram.bytesWritten           12774336                       # Total number of bytes written to DRAM
system.mem_ctrls.dram.avgRdBW              109.809190                       # Average DRAM read bandwidth in MiBytes/s
system.mem_ctrls.dram.avgWrBW               76.531586                       # Average DRAM write bandwidth in MiBytes/s
system.mem_ctrls.dram.peakBW                 12800.00                       # Theoretical peak bandwidth in MiByte/s
system.mem_ctrls.dram.busUtil                    1.46                       # Data bus utilization in percentage
system.mem_ctrls.dram.busUtilRead                0.86                       # Data bus utilization in percentage for reads
system.mem_ctrls.dram.busUtilWrite               0.60                       # Data bus utilization in percentage for writes
system.mem_ctrls.dram.pageHitRate               51.00                       # Row buffer hit rate, read and write combined
system.mem_ctrls.dram.power_state.pwrStateResidencyTicks::UNDEFINED 166915866000                       # Cumulative time (in ticks) in various power states
system.mem_ctrls.dram.rank0.actEnergy       834751680                       # Energy for activate commands per rank (pJ)
system.mem_ctrls.dram.rank0.preEnergy       443681040                       # Energy for precharge commands per rank (pJ)
system.mem_ctrls.dram.rank0.readEnergy     1014893880                       # Energy for read commands per rank (pJ)
system.mem_ctrls.dram.rank0.writeEnergy     514357920                       # Energy for write commands per rank (pJ)
system.mem_ctrls.dram.rank0.refreshEnergy 13176037680.000002                       # Energy for refresh commands per rank (pJ)
system.mem_ctrls.dram.rank0.actBackEnergy  41210306310                       # Energy for active background per rank (pJ)
system.mem_ctrls.dram.rank0.preBackEnergy  29392276800                       # Energy for precharge background per rank (pJ)
system.mem_ctrls.dram.rank0.actPowerDownEnergy            0                       # Energy for active power-down per rank (pJ)
system.mem_ctrls.dram.rank0.prePowerDownEnergy            0                       # Energy for precharge power-down per rank (pJ)
system.mem_ctrls.dram.rank0.selfRefreshEnergy            0                       # Energy for self refresh per rank (pJ)
system.mem_ctrls.dram.rank0.totalEnergy   86586305310                       # Total energy per rank (pJ)
system.mem_ctrls.dram.rank0.averagePower   518.742211                       # Core power per rank (mW)
system.mem_ctrls.dram.rank0.totalIdleTime            0                       # Total Idle time Per DRAM Rank
system.mem_ctrls.dram.rank0.pwrStateTime::IDLE  75984853250                       # Time in different power states
system.mem_ctrls.dram.rank0.pwrStateTime::REF   5573620000                       # Time in different power states
system.mem_ctrls.dram.rank0.pwrStateTime::SREF            0                       # Time in different power states
system.mem_ctrls.dram.rank0.pwrStateTime::PRE_PDN            0                       # Time in different power states
system.mem_ctrls.dram.rank0.pwrStateTime::ACT  85357392750                       # Time in different power states
system.mem_ctrls.dram.rank0.pwrStateTime::ACT_PDN            0                       # Time in different power states
system.mem_ctrls.dram.rank1.actEnergy       865667880                       # Energy for activate commands per rank (pJ)
system.mem_ctrls.dram.rank1.preEnergy       460113390                       # Energy for precharge commands per rank (pJ)
system.mem_ctrls.dram.rank1.readEnergy     1029923580                       # Energy for read commands per rank (pJ)
system.mem_ctrls.dram.rank1.writeEnergy     527548860                       # Energy for write commands per rank (pJ)
system.mem_ctrls.dram.rank1.refreshEnergy 13176037680.000002                       # Energy for refresh commands per rank (pJ)
system.mem_ctrls.dram.rank1.actBackEnergy  40759966980                       # Energy for active background per rank (pJ)
system.mem_ctrls.dram.rank1.preBackEnergy  29771509920                       # Energy for precharge background per rank (pJ)
system.mem_ctrls.dram.rank1.actPowerDownEnergy            0                       # Energy for active power-down per rank (pJ)
system.mem_ctrls.dram.rank1.prePowerDownEnergy            0                       # Energy for precharge power-down per rank (pJ)
system.mem_ctrls.dram.rank1.selfRefreshEnergy            0                       # Energy for self refresh per rank (pJ)
system.mem_ctrls.dram.rank1.totalEnergy   86590768290                       # Total energy per rank (pJ)
system.mem_ctrls.dram.rank1.averagePower   518.768948                       # Core power per rank (mW)
system.mem_ctrls.dram.rank1.totalIdleTime            0                       # Total Idle time Per DRAM Rank
system.mem_ctrls.dram.rank1.pwrStateTime::IDLE  76976349500                       # Time in different power states
system.mem_ctrls.dram.rank1.pwrStateTime::REF   5573620000                       # Time in different power states
system.mem_ctrls.dram.rank1.pwrStateTime::SREF            0                       # Time in different power states
system.mem_ctrls.dram.rank1.pwrStateTime::PRE_PDN            0                       # Time in different power states
system.mem_ctrls.dram.rank1.pwrStateTime::ACT  84365896500                       # Time in different power states
system.mem_ctrls.dram.rank1.pwrStateTime::ACT_PDN            0                       # Time in different power states
system.mem_ctrls.power_state.pwrStateResidencyTicks::UNDEFINED 166915866000                       # Cumulative time (in ticks) in various power states
system.membus.trans_dist::ReadResp             110504                       # Transaction distribution
system.membus.trans_dist::WritebackDirty       199649                       # Transaction distribution
system.membus.trans_dist::CleanEvict            78957                       # Transaction distribution
system.membus.trans_dist::ReadExReq            176824                       # Transaction distribution
system.membus.trans_dist::ReadExResp           176824                       # Transaction distribution
system.membus.trans_dist::ReadSharedReq        110504                       # Transaction distribution
system.membus.pkt_count_system.l2.mem_side_port::system.mem_ctrls.port       853262                       # Packet count per connected requestor and responder (bytes)
system.membus.pkt_count::total                 853262                       # Packet count per connected requestor and responder (bytes)
system.membus.pkt_size_system.l2.mem_side_port::system.mem_ctrls.port     31166528                       # Cumulative packet size per connected requestor and responder (bytes)
system.membus.pkt_size::total                31166528                       # Cumulative packet size per connected requestor and responder (bytes)
system.membus.snoops                                0                       # Total snoops (count)
system.membus.snoopTraffic                          0                       # Total snoop traffic (bytes)
system.membus.snoop_fanout::samples            287328                       # Request fanout histogram
system.membus.snoop_fanout::mean                    0                       # Request fanout histogram
system.membus.snoop_fanout::stdev                   0                       # Request fanout histogram
system.membus.snoop_fanout::underflows              0      0.00%      0.00% # Request fanout histogram
system.membus.snoop_fanout::0                  287328    100.00%    100.00% # Request fanout histogram
system.membus.snoop_fanout::1                       0      0.00%    100.00% # Request fanout histogram
system.membus.snoop_fanout::overflows               0      0.00%    100.00% # Request fanout histogram
system.membus.snoop_fanout::min_value               0                       # Request fanout histogram
system.membus.snoop_fanout::max_value               0                       # Request fanout histogram
system.membus.snoop_fanout::total              287328                       # Request fanout histogram
system.membus.power_state.pwrStateResidencyTicks::UNDEFINED 166915866000                       # Cumulative time (in ticks) in various power states
system.membus.reqLayer0.occupancy          1364530000                       # Layer occupancy (ticks)
system.membus.reqLayer0.utilization               0.8                       # Layer utilization (%)
system.membus.respLayer1.occupancy         1564196500                       # Layer occupancy (ticks)
system.membus.respLayer1.utilization              0.9                       # Layer utilization (%)
system.tol2bus.trans_dist::ReadResp            459672                       # Transaction distribution
system.tol2bus.trans_dist::WritebackDirty       879574                       # Transaction distribution
system.tol2bus.trans_dist::WritebackClean          233                       # Transaction distribution
system.tol2bus.trans_dist::CleanEvict          188793                       # Transaction distribution
system.tol2bus.trans_dist::ReadExReq           322314                       # Transaction distribution
system.tol2bus.trans_dist::ReadExResp          322314                       # Transaction distribution
system.tol2bus.trans_dist::ReadCleanReq           738                       # Transaction distribution
system.tol2bus.trans_dist::ReadSharedReq       458934                       # Transaction distribution
system.tol2bus.pkt_count_system.cpu.icache.mem_side_port::system.l2.cpu_side_port         1709                       # Packet count per connected requestor and responder (bytes)
system.tol2bus.pkt_count_system.cpu.dcache.mem_side_port::system.l2.cpu_side_port      2342720                       # Packet count per connected requestor and responder (bytes)
system.tol2bus.pkt_count::total               2344429                       # Packet count per connected requestor and responder (bytes)
system.tol2bus.pkt_size_system.cpu.icache.mem_side_port::system.l2.cpu_side_port        62144                       # Cumulative packet size per connected requestor and responder (bytes)
system.tol2bus.pkt_size_system.cpu.dcache.mem_side_port::system.l2.cpu_side_port     93515072                       # Cumulative packet size per connected requestor and responder (bytes)
system.tol2bus.pkt_size::total               93577216                       # Cumulative packet size per connected requestor and responder (bytes)
system.tol2bus.snoops                          288143                       # Total snoops (count)
system.tol2bus.snoopTraffic                  12777536                       # Total snoop traffic (bytes)
system.tol2bus.snoop_fanout::samples          1070129                       # Request fanout histogram
system.tol2bus.snoop_fanout::mean            0.013910                       # Request fanout histogram
system.tol2bus.snoop_fanout::stdev           0.117263                       # Request fanout histogram
system.tol2bus.snoop_fanout::underflows             0      0.00%      0.00% # Request fanout histogram
system.tol2bus.snoop_fanout::0                1055261     98.61%     98.61% # Request fanout histogram
system.tol2bus.snoop_fanout::1                  14850      1.39%    100.00% # Request fanout histogram
system.tol2bus.snoop_fanout::2                     18      0.00%    100.00% # Request fanout histogram
system.tol2bus.snoop_fanout::overflows              0      0.00%    100.00% # Request fanout histogram
system.tol2bus.snoop_fanout::min_value              0                       # Request fanout histogram
system.tol2bus.snoop_fanout::max_value              2                       # Request fanout histogram
system.tol2bus.snoop_fanout::total            1070129                       # Request fanout histogram
system.tol2bus.power_state.pwrStateResidencyTicks::UNDEFINED 166915866000                       # Cumulative time (in ticks) in various power states
system.tol2bus.reqLayer0.occupancy         2922759000                       # Layer occupancy (ticks)
system.tol2bus.reqLayer0.utilization              1.8                       # Layer utilization (%)
system.tol2bus.respLayer0.occupancy           2214000                       # Layer occupancy (ticks)
system.tol2bus.respLayer0.utilization             0.0                       # Layer utilization (%)
system.tol2bus.respLayer1.occupancy        2343749994                       # Layer occupancy (ticks)
system.tol2bus.respLayer1.utilization             1.4                       # Layer utilization (%)
system.voltage_domain.voltage                       1                       # Voltage in Volts

---------- End Simulation Statistics   ----------
