
---------- Begin Simulation Statistics ----------
final_tick                               112892785000                       # Number of ticks from beginning of simulation (restored from checkpoints and never reset)
host_inst_rate                                 161869                       # Simulator instruction rate (inst/s)
host_mem_usage                                 661132                       # Number of bytes of host memory used
host_op_rate                                   177135                       # Simulator op (including micro ops) rate (op/s)
host_seconds                                   617.79                       # Real time elapsed on the host
host_tick_rate                              182737971                       # Simulator tick rate (ticks/s)
sim_freq                                 1000000000000                       # Frequency of simulated ticks
sim_insts                                   100000001                       # Number of instructions simulated
sim_ops                                     109431274                       # Number of ops (including micro ops) simulated
sim_seconds                                  0.112893                       # Number of seconds simulated
sim_ticks                                112892785000                       # Number of ticks simulated
system.cpu.committedInsts                   100000001                       # Number of instructions committed
system.cpu.committedOps                     109431274                       # Number of ops (including micro ops) committed
system.cpu.cpi                               1.128928                       # CPI: cycles per instruction
system.cpu.discardedOps                        377833                       # Number of ops (including micro ops) which were discarded before commit
system.cpu.idleCycles                         3904157                       # Total number of cycles that the object has spent stopped
system.cpu.ipc                               0.885796                       # IPC: instructions per cycle
system.cpu.numCycles                        112892785                       # number of cpu cycles simulated
system.cpu.numFetchSuspends                         0                       # Number of times Execute suspended instruction fetching
system.cpu.numWorkItemsCompleted                    0                       # number of work items this cpu completed
system.cpu.numWorkItemsStarted                      0                       # number of work items this cpu started
system.cpu.op_class_0::No_OpClass                   0      0.00%      0.00% # Class of committed instruction
system.cpu.op_class_0::IntAlu                72955009     66.67%     66.67% # Class of committed instruction
system.cpu.op_class_0::IntMult                 568364      0.52%     67.19% # Class of committed instruction
system.cpu.op_class_0::IntDiv                       0      0.00%     67.19% # Class of committed instruction
system.cpu.op_class_0::FloatAdd                     0      0.00%     67.19% # Class of committed instruction
system.cpu.op_class_0::FloatCmp                     0      0.00%     67.19% # Class of committed instruction
system.cpu.op_class_0::FloatCvt                     0      0.00%     67.19% # Class of committed instruction
system.cpu.op_class_0::FloatMult                    0      0.00%     67.19% # Class of committed instruction
system.cpu.op_class_0::FloatMultAcc                 0      0.00%     67.19% # Class of committed instruction
system.cpu.op_class_0::FloatDiv                     0      0.00%     67.19% # Class of committed instruction
system.cpu.op_class_0::FloatMisc                    0      0.00%     67.19% # Class of committed instruction
system.cpu.op_class_0::FloatSqrt                    0      0.00%     67.19% # Class of committed instruction
system.cpu.op_class_0::SimdAdd                 241336      0.22%     67.41% # Class of committed instruction
system.cpu.op_class_0::SimdAddAcc                   0      0.00%     67.41% # Class of committed instruction
system.cpu.op_class_0::SimdAlu                 154628      0.14%     67.55% # Class of committed instruction
system.cpu.op_class_0::SimdCmp                 120668      0.11%     67.66% # Class of committed instruction
system.cpu.op_class_0::SimdCvt                      0      0.00%     67.66% # Class of committed instruction
system.cpu.op_class_0::SimdMisc                 44543      0.04%     67.70% # Class of committed instruction
system.cpu.op_class_0::SimdMult                     0      0.00%     67.70% # Class of committed instruction
system.cpu.op_class_0::SimdMultAcc                  0      0.00%     67.70% # Class of committed instruction
system.cpu.op_class_0::SimdShift                    0      0.00%     67.70% # Class of committed instruction
system.cpu.op_class_0::SimdShiftAcc                 0      0.00%     67.70% # Class of committed instruction
system.cpu.op_class_0::SimdDiv                      0      0.00%     67.70% # Class of committed instruction
system.cpu.op_class_0::SimdSqrt                     0      0.00%     67.70% # Class of committed instruction
system.cpu.op_class_0::SimdFloatAdd                 0      0.00%     67.70% # Class of committed instruction
system.cpu.op_class_0::SimdFloatAlu                 0      0.00%     67.70% # Class of committed instruction
system.cpu.op_class_0::SimdFloatCmp                 0      0.00%     67.70% # Class of committed instruction
system.cpu.op_class_0::SimdFloatCvt                 0      0.00%     67.70% # Class of committed instruction
system.cpu.op_class_0::SimdFloatDiv                 0      0.00%     67.70% # Class of committed instruction
system.cpu.op_class_0::SimdFloatMisc           166417      0.15%     67.85% # Class of committed instruction
system.cpu.op_class_0::SimdFloatMult                0      0.00%     67.85% # Class of committed instruction
system.cpu.op_class_0::SimdFloatMultAcc             0      0.00%     67.85% # Class of committed instruction
system.cpu.op_class_0::SimdFloatSqrt                0      0.00%     67.85% # Class of committed instruction
system.cpu.op_class_0::SimdReduceAdd                0      0.00%     67.85% # Class of committed instruction
system.cpu.op_class_0::SimdReduceAlu                0      0.00%     67.85% # Class of committed instruction
system.cpu.op_class_0::SimdReduceCmp                0      0.00%     67.85% # Class of committed instruction
system.cpu.op_class_0::SimdFloatReduceAdd            0      0.00%     67.85% # Class of committed instruction
system.cpu.op_class_0::SimdFloatReduceCmp            0      0.00%     67.85% # Class of committed instruction
system.cpu.op_class_0::SimdAes                      0      0.00%     67.85% # Class of committed instruction
system.cpu.op_class_0::SimdAesMix                   0      0.00%     67.85% # Class of committed instruction
system.cpu.op_class_0::SimdSha1Hash                 0      0.00%     67.85% # Class of committed instruction
system.cpu.op_class_0::SimdSha1Hash2                0      0.00%     67.85% # Class of committed instruction
system.cpu.op_class_0::SimdSha256Hash               0      0.00%     67.85% # Class of committed instruction
system.cpu.op_class_0::SimdSha256Hash2              0      0.00%     67.85% # Class of committed instruction
system.cpu.op_class_0::SimdShaSigma2                0      0.00%     67.85% # Class of committed instruction
system.cpu.op_class_0::SimdShaSigma3                0      0.00%     67.85% # Class of committed instruction
system.cpu.op_class_0::SimdPredAlu                  0      0.00%     67.85% # Class of committed instruction
system.cpu.op_class_0::MemRead               20645991     18.87%     86.72% # Class of committed instruction
system.cpu.op_class_0::MemWrite              14534318     13.28%    100.00% # Class of committed instruction
system.cpu.op_class_0::FloatMemRead                 0      0.00%    100.00% # Class of committed instruction
system.cpu.op_class_0::FloatMemWrite                0      0.00%    100.00% # Class of committed instruction
system.cpu.op_class_0::IprAccess                    0      0.00%    100.00% # Class of committed instruction
system.cpu.op_class_0::InstPrefetch                 0      0.00%    100.00% # Class of committed instruction
system.cpu.op_class_0::total                109431274                       # Class of committed instruction
system.cpu.tickCycles                       108988628                       # Number of cycles that the object actually ticked
system.cpu.workload.numSyscalls                    87                       # Number of system calls
system.membus.snoop_filter.hit_multi_requests            0                       # Number of requests hitting in the snoop filter with multiple (>1) holders of the requested data.
system.membus.snoop_filter.hit_multi_snoops            0                       # Number of snoops hitting in the snoop filter with multiple (>1) holders of the requested data.
system.membus.snoop_filter.hit_single_requests        26478                       # Number of requests hitting in the snoop filter with a single holder of the requested data.
system.membus.snoop_filter.hit_single_snoops            0                       # Number of snoops hitting in the snoop filter with a single holder of the requested data.
system.membus.snoop_filter.tot_requests         69791                       # Total number of requests made to the snoop filter.
system.membus.snoop_filter.tot_snoops               0                       # Total number of snoops made to the snoop filter.
system.tol2bus.snoop_filter.hit_multi_requests         2085                       # Number of requests hitting in the snoop filter with multiple (>1) holders of the requested data.
system.tol2bus.snoop_filter.hit_multi_snoops            0                       # Number of snoops hitting in the snoop filter with multiple (>1) holders of the requested data.
system.tol2bus.snoop_filter.hit_single_requests        90173                       # Number of requests hitting in the snoop filter with a single holder of the requested data.
system.tol2bus.snoop_filter.hit_single_snoops          477                       # Number of snoops hitting in the snoop filter with a single holder of the requested data.
system.tol2bus.snoop_filter.tot_requests       181306                       # Total number of requests made to the snoop filter.
system.tol2bus.snoop_filter.tot_snoops            477                       # Total number of snoops made to the snoop filter.
system.clk_domain.clock                          1000                       # Clock period in ticks
system.cpu.branchPred.lookups                20361067                       # Number of BP lookups
system.cpu.branchPred.condPredicted          16298311                       # Number of conditional branches predicted
system.cpu.branchPred.condIncorrect             53679                       # Number of conditional branches incorrect
system.cpu.branchPred.BTBLookups              8737643                       # Number of BTB lookups
system.cpu.branchPred.BTBHits                 8736245                       # Number of BTB hits
system.cpu.branchPred.BTBHitPct             99.984000                       # BTB Hit Percentage
system.cpu.branchPred.RASUsed                 1050557                       # Number of times the RAS was used to get a target.
system.cpu.branchPred.RASIncorrect                326                       # Number of incorrect RAS predictions.
system.cpu.branchPred.indirectLookups          434276                       # Number of indirect predictor lookups.
system.cpu.branchPred.indirectHits             300028                       # Number of indirect target hits.
system.cpu.branchPred.indirectMisses           134248                       # Number of indirect misses.
system.cpu.branchPred.indirectMispredicted         1039                       # Number of mispredicted indirect branches.
system.cpu.dcache.demand_hits::.cpu.data     35563273                       # number of demand (read+write) hits
system.cpu.dcache.demand_hits::total         35563273                       # number of demand (read+write) hits
system.cpu.dcache.overall_hits::.cpu.data     35566518                       # number of overall hits
system.cpu.dcache.overall_hits::total        35566518                       # number of overall hits
system.cpu.dcache.demand_misses::.cpu.data       122875                       # number of demand (read+write) misses
system.cpu.dcache.demand_misses::total         122875                       # number of demand (read+write) misses
system.cpu.dcache.overall_misses::.cpu.data       122991                       # number of overall misses
system.cpu.dcache.overall_misses::total        122991                       # number of overall misses
system.cpu.dcache.demand_miss_latency::.cpu.data   7499221000                       # number of demand (read+write) miss cycles
system.cpu.dcache.demand_miss_latency::total   7499221000                       # number of demand (read+write) miss cycles
system.cpu.dcache.overall_miss_latency::.cpu.data   7499221000                       # number of overall miss cycles
system.cpu.dcache.overall_miss_latency::total   7499221000                       # number of overall miss cycles
system.cpu.dcache.demand_accesses::.cpu.data     35686148                       # number of demand (read+write) accesses
system.cpu.dcache.demand_accesses::total     35686148                       # number of demand (read+write) accesses
system.cpu.dcache.overall_accesses::.cpu.data     35689509                       # number of overall (read+write) accesses
system.cpu.dcache.overall_accesses::total     35689509                       # number of overall (read+write) accesses
system.cpu.dcache.demand_miss_rate::.cpu.data     0.003443                       # miss rate for demand accesses
system.cpu.dcache.demand_miss_rate::total     0.003443                       # miss rate for demand accesses
system.cpu.dcache.overall_miss_rate::.cpu.data     0.003446                       # miss rate for overall accesses
system.cpu.dcache.overall_miss_rate::total     0.003446                       # miss rate for overall accesses
system.cpu.dcache.demand_avg_miss_latency::.cpu.data 61031.300102                       # average overall miss latency
system.cpu.dcache.demand_avg_miss_latency::total 61031.300102                       # average overall miss latency
system.cpu.dcache.overall_avg_miss_latency::.cpu.data 60973.737916                       # average overall miss latency
system.cpu.dcache.overall_avg_miss_latency::total 60973.737916                       # average overall miss latency
system.cpu.dcache.blocked_cycles::no_mshrs            0                       # number of cycles access was blocked
system.cpu.dcache.blocked_cycles::no_targets            0                       # number of cycles access was blocked
system.cpu.dcache.blocked::no_mshrs                 0                       # number of cycles access was blocked
system.cpu.dcache.blocked::no_targets               0                       # number of cycles access was blocked
system.cpu.dcache.avg_blocked_cycles::no_mshrs          nan                       # average number of cycles each access was blocked
system.cpu.dcache.avg_blocked_cycles::no_targets          nan                       # average number of cycles each access was blocked
system.cpu.dcache.writebacks::.writebacks        72129                       # number of writebacks
system.cpu.dcache.writebacks::total             72129                       # number of writebacks
system.cpu.dcache.demand_mshr_hits::.cpu.data        32622                       # number of demand (read+write) MSHR hits
system.cpu.dcache.demand_mshr_hits::total        32622                       # number of demand (read+write) MSHR hits
system.cpu.dcache.overall_mshr_hits::.cpu.data        32622                       # number of overall MSHR hits
system.cpu.dcache.overall_mshr_hits::total        32622                       # number of overall MSHR hits
system.cpu.dcache.demand_mshr_misses::.cpu.data        90253                       # number of demand (read+write) MSHR misses
system.cpu.dcache.demand_mshr_misses::total        90253                       # number of demand (read+write) MSHR misses
system.cpu.dcache.overall_mshr_misses::.cpu.data        90364                       # number of overall MSHR misses
system.cpu.dcache.overall_mshr_misses::total        90364                       # number of overall MSHR misses
system.cpu.dcache.demand_mshr_miss_latency::.cpu.data   5742429000                       # number of demand (read+write) MSHR miss cycles
system.cpu.dcache.demand_mshr_miss_latency::total   5742429000                       # number of demand (read+write) MSHR miss cycles
system.cpu.dcache.overall_mshr_miss_latency::.cpu.data   5746343000                       # number of overall MSHR miss cycles
system.cpu.dcache.overall_mshr_miss_latency::total   5746343000                       # number of overall MSHR miss cycles
system.cpu.dcache.demand_mshr_miss_rate::.cpu.data     0.002529                       # mshr miss rate for demand accesses
system.cpu.dcache.demand_mshr_miss_rate::total     0.002529                       # mshr miss rate for demand accesses
system.cpu.dcache.overall_mshr_miss_rate::.cpu.data     0.002532                       # mshr miss rate for overall accesses
system.cpu.dcache.overall_mshr_miss_rate::total     0.002532                       # mshr miss rate for overall accesses
system.cpu.dcache.demand_avg_mshr_miss_latency::.cpu.data 63625.907172                       # average overall mshr miss latency
system.cpu.dcache.demand_avg_mshr_miss_latency::total 63625.907172                       # average overall mshr miss latency
system.cpu.dcache.overall_avg_mshr_miss_latency::.cpu.data 63591.065026                       # average overall mshr miss latency
system.cpu.dcache.overall_avg_mshr_miss_latency::total 63591.065026                       # average overall mshr miss latency
system.cpu.dcache.replacements                  89855                       # number of replacements
system.cpu.dcache.ReadReq_hits::.cpu.data     21379647                       # number of ReadReq hits
system.cpu.dcache.ReadReq_hits::total        21379647                       # number of ReadReq hits
system.cpu.dcache.ReadReq_misses::.cpu.data        52237                       # number of ReadReq misses
system.cpu.dcache.ReadReq_misses::total         52237                       # number of ReadReq misses
system.cpu.dcache.ReadReq_miss_latency::.cpu.data   1786373000                       # number of ReadReq miss cycles
system.cpu.dcache.ReadReq_miss_latency::total   1786373000                       # number of ReadReq miss cycles
system.cpu.dcache.ReadReq_accesses::.cpu.data     21431884                       # number of ReadReq accesses(hits+misses)
system.cpu.dcache.ReadReq_accesses::total     21431884                       # number of ReadReq accesses(hits+misses)
system.cpu.dcache.ReadReq_miss_rate::.cpu.data     0.002437                       # miss rate for ReadReq accesses
system.cpu.dcache.ReadReq_miss_rate::total     0.002437                       # miss rate for ReadReq accesses
system.cpu.dcache.ReadReq_avg_miss_latency::.cpu.data 34197.465398                       # average ReadReq miss latency
system.cpu.dcache.ReadReq_avg_miss_latency::total 34197.465398                       # average ReadReq miss latency
system.cpu.dcache.ReadReq_mshr_hits::.cpu.data         9493                       # number of ReadReq MSHR hits
system.cpu.dcache.ReadReq_mshr_hits::total         9493                       # number of ReadReq MSHR hits
system.cpu.dcache.ReadReq_mshr_misses::.cpu.data        42744                       # number of ReadReq MSHR misses
system.cpu.dcache.ReadReq_mshr_misses::total        42744                       # number of ReadReq MSHR misses
system.cpu.dcache.ReadReq_mshr_miss_latency::.cpu.data   1420529000                       # number of ReadReq MSHR miss cycles
system.cpu.dcache.ReadReq_mshr_miss_latency::total   1420529000                       # number of ReadReq MSHR miss cycles
system.cpu.dcache.ReadReq_mshr_miss_rate::.cpu.data     0.001994                       # mshr miss rate for ReadReq accesses
system.cpu.dcache.ReadReq_mshr_miss_rate::total     0.001994                       # mshr miss rate for ReadReq accesses
system.cpu.dcache.ReadReq_avg_mshr_miss_latency::.cpu.data 33233.412877                       # average ReadReq mshr miss latency
system.cpu.dcache.ReadReq_avg_mshr_miss_latency::total 33233.412877                       # average ReadReq mshr miss latency
system.cpu.dcache.WriteReq_hits::.cpu.data     14183626                       # number of WriteReq hits
system.cpu.dcache.WriteReq_hits::total       14183626                       # number of WriteReq hits
system.cpu.dcache.WriteReq_misses::.cpu.data        70638                       # number of WriteReq misses
system.cpu.dcache.WriteReq_misses::total        70638                       # number of WriteReq misses
system.cpu.dcache.WriteReq_miss_latency::.cpu.data   5712848000                       # number of WriteReq miss cycles
system.cpu.dcache.WriteReq_miss_latency::total   5712848000                       # number of WriteReq miss cycles
system.cpu.dcache.WriteReq_accesses::.cpu.data     14254264                       # number of WriteReq accesses(hits+misses)
system.cpu.dcache.WriteReq_accesses::total     14254264                       # number of WriteReq accesses(hits+misses)
system.cpu.dcache.WriteReq_miss_rate::.cpu.data     0.004956                       # miss rate for WriteReq accesses
system.cpu.dcache.WriteReq_miss_rate::total     0.004956                       # miss rate for WriteReq accesses
system.cpu.dcache.WriteReq_avg_miss_latency::.cpu.data 80874.996461                       # average WriteReq miss latency
system.cpu.dcache.WriteReq_avg_miss_latency::total 80874.996461                       # average WriteReq miss latency
system.cpu.dcache.WriteReq_mshr_hits::.cpu.data        23129                       # number of WriteReq MSHR hits
system.cpu.dcache.WriteReq_mshr_hits::total        23129                       # number of WriteReq MSHR hits
system.cpu.dcache.WriteReq_mshr_misses::.cpu.data        47509                       # number of WriteReq MSHR misses
system.cpu.dcache.WriteReq_mshr_misses::total        47509                       # number of WriteReq MSHR misses
system.cpu.dcache.WriteReq_mshr_miss_latency::.cpu.data   4321900000                       # number of WriteReq MSHR miss cycles
system.cpu.dcache.WriteReq_mshr_miss_latency::total   4321900000                       # number of WriteReq MSHR miss cycles
system.cpu.dcache.WriteReq_mshr_miss_rate::.cpu.data     0.003333                       # mshr miss rate for WriteReq accesses
system.cpu.dcache.WriteReq_mshr_miss_rate::total     0.003333                       # mshr miss rate for WriteReq accesses
system.cpu.dcache.WriteReq_avg_mshr_miss_latency::.cpu.data 90970.131975                       # average WriteReq mshr miss latency
system.cpu.dcache.WriteReq_avg_mshr_miss_latency::total 90970.131975                       # average WriteReq mshr miss latency
system.cpu.dcache.SoftPFReq_hits::.cpu.data         3245                       # number of SoftPFReq hits
system.cpu.dcache.SoftPFReq_hits::total          3245                       # number of SoftPFReq hits
system.cpu.dcache.SoftPFReq_misses::.cpu.data          116                       # number of SoftPFReq misses
system.cpu.dcache.SoftPFReq_misses::total          116                       # number of SoftPFReq misses
system.cpu.dcache.SoftPFReq_accesses::.cpu.data         3361                       # number of SoftPFReq accesses(hits+misses)
system.cpu.dcache.SoftPFReq_accesses::total         3361                       # number of SoftPFReq accesses(hits+misses)
system.cpu.dcache.SoftPFReq_miss_rate::.cpu.data     0.034514                       # miss rate for SoftPFReq accesses
system.cpu.dcache.SoftPFReq_miss_rate::total     0.034514                       # miss rate for SoftPFReq accesses
system.cpu.dcache.SoftPFReq_mshr_misses::.cpu.data          111                       # number of SoftPFReq MSHR misses
system.cpu.dcache.SoftPFReq_mshr_misses::total          111                       # number of SoftPFReq MSHR misses
system.cpu.dcache.SoftPFReq_mshr_miss_latency::.cpu.data      3914000                       # number of SoftPFReq MSHR miss cycles
system.cpu.dcache.SoftPFReq_mshr_miss_latency::total      3914000                       # number of SoftPFReq MSHR miss cycles
system.cpu.dcache.SoftPFReq_mshr_miss_rate::.cpu.data     0.033026                       # mshr miss rate for SoftPFReq accesses
system.cpu.dcache.SoftPFReq_mshr_miss_rate::total     0.033026                       # mshr miss rate for SoftPFReq accesses
system.cpu.dcache.SoftPFReq_avg_mshr_miss_latency::.cpu.data 35261.261261                       # average SoftPFReq mshr miss latency
system.cpu.dcache.SoftPFReq_avg_mshr_miss_latency::total 35261.261261                       # average SoftPFReq mshr miss latency
system.cpu.dcache.LoadLockedReq_hits::.cpu.data        89080                       # number of LoadLockedReq hits
system.cpu.dcache.LoadLockedReq_hits::total        89080                       # number of LoadLockedReq hits
system.cpu.dcache.LoadLockedReq_misses::.cpu.data            3                       # number of LoadLockedReq misses
system.cpu.dcache.LoadLockedReq_misses::total            3                       # number of LoadLockedReq misses
system.cpu.dcache.LoadLockedReq_miss_latency::.cpu.data       162000                       # number of LoadLockedReq miss cycles
system.cpu.dcache.LoadLockedReq_miss_latency::total       162000                       # number of LoadLockedReq miss cycles
system.cpu.dcache.LoadLockedReq_accesses::.cpu.data        89083                       # number of LoadLockedReq accesses(hits+misses)
system.cpu.dcache.LoadLockedReq_accesses::total        89083                       # number of LoadLockedReq accesses(hits+misses)
system.cpu.dcache.LoadLockedReq_miss_rate::.cpu.data     0.000034                       # miss rate for LoadLockedReq accesses
system.cpu.dcache.LoadLockedReq_miss_rate::total     0.000034                       # miss rate for LoadLockedReq accesses
system.cpu.dcache.LoadLockedReq_avg_miss_latency::.cpu.data        54000                       # average LoadLockedReq miss latency
system.cpu.dcache.LoadLockedReq_avg_miss_latency::total        54000                       # average LoadLockedReq miss latency
system.cpu.dcache.LoadLockedReq_mshr_misses::.cpu.data            3                       # number of LoadLockedReq MSHR misses
system.cpu.dcache.LoadLockedReq_mshr_misses::total            3                       # number of LoadLockedReq MSHR misses
system.cpu.dcache.LoadLockedReq_mshr_miss_latency::.cpu.data       156000                       # number of LoadLockedReq MSHR miss cycles
system.cpu.dcache.LoadLockedReq_mshr_miss_latency::total       156000                       # number of LoadLockedReq MSHR miss cycles
system.cpu.dcache.LoadLockedReq_mshr_miss_rate::.cpu.data     0.000034                       # mshr miss rate for LoadLockedReq accesses
system.cpu.dcache.LoadLockedReq_mshr_miss_rate::total     0.000034                       # mshr miss rate for LoadLockedReq accesses
system.cpu.dcache.LoadLockedReq_avg_mshr_miss_latency::.cpu.data        52000                       # average LoadLockedReq mshr miss latency
system.cpu.dcache.LoadLockedReq_avg_mshr_miss_latency::total        52000                       # average LoadLockedReq mshr miss latency
system.cpu.dcache.StoreCondReq_hits::.cpu.data        89080                       # number of StoreCondReq hits
system.cpu.dcache.StoreCondReq_hits::total        89080                       # number of StoreCondReq hits
system.cpu.dcache.StoreCondReq_accesses::.cpu.data        89080                       # number of StoreCondReq accesses(hits+misses)
system.cpu.dcache.StoreCondReq_accesses::total        89080                       # number of StoreCondReq accesses(hits+misses)
system.cpu.dcache.power_state.pwrStateResidencyTicks::UNDEFINED 112892785000                       # Cumulative time (in ticks) in various power states
system.cpu.dcache.tags.tagsinuse           511.093586                       # Cycle average of tags in use
system.cpu.dcache.tags.total_refs            35835045                       # Total number of references to valid blocks.
system.cpu.dcache.tags.sampled_refs             90367                       # Sample count of references to valid blocks.
system.cpu.dcache.tags.avg_refs            396.550123                       # Average number of references to valid blocks.
system.cpu.dcache.tags.warmup_cycle            223000                       # Cycle when the warmup percentage was hit.
system.cpu.dcache.tags.occ_blocks::.cpu.data   511.093586                       # Average occupied blocks per requestor
system.cpu.dcache.tags.occ_percent::.cpu.data     0.998230                       # Average percentage of cache occupancy
system.cpu.dcache.tags.occ_percent::total     0.998230                       # Average percentage of cache occupancy
system.cpu.dcache.tags.occ_task_id_blocks::1024          512                       # Occupied blocks per task id
system.cpu.dcache.tags.age_task_id_blocks_1024::0            3                       # Occupied blocks per task id
system.cpu.dcache.tags.age_task_id_blocks_1024::1           33                       # Occupied blocks per task id
system.cpu.dcache.tags.age_task_id_blocks_1024::2          256                       # Occupied blocks per task id
system.cpu.dcache.tags.age_task_id_blocks_1024::3          220                       # Occupied blocks per task id
system.cpu.dcache.tags.occ_task_id_percent::1024            1                       # Percentage of cache occupancy per task id
system.cpu.dcache.tags.tag_accesses          35958039                       # Number of tag accesses
system.cpu.dcache.tags.data_accesses         35958039                       # Number of data accesses
system.cpu.dcache.tags.power_state.pwrStateResidencyTicks::UNDEFINED 112892785000                       # Cumulative time (in ticks) in various power states
system.cpu.dtb.instHits                             0                       # ITB inst hits
system.cpu.dtb.instMisses                           0                       # ITB inst misses
system.cpu.dtb.readHits                             0                       # DTB read hits
system.cpu.dtb.readMisses                           0                       # DTB read misses
system.cpu.dtb.writeHits                            0                       # DTB write hits
system.cpu.dtb.writeMisses                          0                       # DTB write misses
system.cpu.dtb.inserts                              0                       # Number of times an entry is inserted into the TLB
system.cpu.dtb.flushTlb                             0                       # Number of times complete TLB was flushed
system.cpu.dtb.flushTlbMva                          0                       # Number of times TLB was flushed by MVA
system.cpu.dtb.flushTlbMvaAsid                      0                       # Number of times TLB was flushed by MVA & ASID
system.cpu.dtb.flushTlbAsid                         0                       # Number of times TLB was flushed by ASID
system.cpu.dtb.flushedEntries                       0                       # Number of entries that have been flushed from TLB
system.cpu.dtb.alignFaults                          0                       # Number of TLB faults due to alignment restrictions
system.cpu.dtb.prefetchFaults                       0                       # Number of TLB faults due to prefetch
system.cpu.dtb.domainFaults                         0                       # Number of TLB faults due to domain restrictions
system.cpu.dtb.permsFaults                          0                       # Number of TLB faults due to permissions restrictions
system.cpu.dtb.readAccesses                         0                       # DTB read accesses
system.cpu.dtb.writeAccesses                        0                       # DTB write accesses
system.cpu.dtb.instAccesses                         0                       # ITB inst accesses
system.cpu.dtb.hits                                 0                       # Total TLB (inst and data) hits
system.cpu.dtb.misses                               0                       # Total TLB (inst and data) misses
system.cpu.dtb.accesses                             0                       # Total TLB (inst and data) accesses
system.cpu.dtb.stage2_mmu.stage2_tlb.instHits            0                       # ITB inst hits
system.cpu.dtb.stage2_mmu.stage2_tlb.instMisses            0                       # ITB inst misses
system.cpu.dtb.stage2_mmu.stage2_tlb.readHits            0                       # DTB read hits
system.cpu.dtb.stage2_mmu.stage2_tlb.readMisses            0                       # DTB read misses
system.cpu.dtb.stage2_mmu.stage2_tlb.writeHits            0                       # DTB write hits
system.cpu.dtb.stage2_mmu.stage2_tlb.writeMisses            0                       # DTB write misses
system.cpu.dtb.stage2_mmu.stage2_tlb.inserts            0                       # Number of times an entry is inserted into the TLB
system.cpu.dtb.stage2_mmu.stage2_tlb.flushTlb            0                       # Number of times complete TLB was flushed
system.cpu.dtb.stage2_mmu.stage2_tlb.flushTlbMva            0                       # Number of times TLB was flushed by MVA
system.cpu.dtb.stage2_mmu.stage2_tlb.flushTlbMvaAsid            0                       # Number of times TLB was flushed by MVA & ASID
system.cpu.dtb.stage2_mmu.stage2_tlb.flushTlbAsid            0                       # Number of times TLB was flushed by ASID
system.cpu.dtb.stage2_mmu.stage2_tlb.flushedEntries            0                       # Number of entries that have been flushed from TLB
system.cpu.dtb.stage2_mmu.stage2_tlb.alignFaults            0                       # Number of TLB faults due to alignment restrictions
system.cpu.dtb.stage2_mmu.stage2_tlb.prefetchFaults            0                       # Number of TLB faults due to prefetch
system.cpu.dtb.stage2_mmu.stage2_tlb.domainFaults            0                       # Number of TLB faults due to domain restrictions
system.cpu.dtb.stage2_mmu.stage2_tlb.permsFaults            0                       # Number of TLB faults due to permissions restrictions
system.cpu.dtb.stage2_mmu.stage2_tlb.readAccesses            0                       # DTB read accesses
system.cpu.dtb.stage2_mmu.stage2_tlb.writeAccesses            0                       # DTB write accesses
system.cpu.dtb.stage2_mmu.stage2_tlb.instAccesses            0                       # ITB inst accesses
system.cpu.dtb.stage2_mmu.stage2_tlb.hits            0                       # Total TLB (inst and data) hits
system.cpu.dtb.stage2_mmu.stage2_tlb.misses            0                       # Total TLB (inst and data) misses
system.cpu.dtb.stage2_mmu.stage2_tlb.accesses            0                       # Total TLB (inst and data) accesses
system.cpu.dtb.stage2_mmu.stage2_tlb.walker.walks            0                       # Table walker walks requested
system.cpu.dtb.stage2_mmu.stage2_tlb.walker.requestOrigin_Requested::Data            0                       # Table walker requests started/completed, data/inst
system.cpu.dtb.stage2_mmu.stage2_tlb.walker.requestOrigin_Requested::Inst            0                       # Table walker requests started/completed, data/inst
system.cpu.dtb.stage2_mmu.stage2_tlb.walker.requestOrigin_Requested::total            0                       # Table walker requests started/completed, data/inst
system.cpu.dtb.stage2_mmu.stage2_tlb.walker.requestOrigin_Completed::Data            0                       # Table walker requests started/completed, data/inst
system.cpu.dtb.stage2_mmu.stage2_tlb.walker.requestOrigin_Completed::Inst            0                       # Table walker requests started/completed, data/inst
system.cpu.dtb.stage2_mmu.stage2_tlb.walker.requestOrigin_Completed::total            0                       # Table walker requests started/completed, data/inst
system.cpu.dtb.stage2_mmu.stage2_tlb.walker.requestOrigin::total            0                       # Table walker requests started/completed, data/inst
system.cpu.dtb.stage2_mmu.stage2_tlb.walker.power_state.pwrStateResidencyTicks::UNDEFINED 112892785000                       # Cumulative time (in ticks) in various power states
system.cpu.dtb.walker.walks                         0                       # Table walker walks requested
system.cpu.dtb.walker.requestOrigin_Requested::Data            0                       # Table walker requests started/completed, data/inst
system.cpu.dtb.walker.requestOrigin_Requested::Inst            0                       # Table walker requests started/completed, data/inst
system.cpu.dtb.walker.requestOrigin_Requested::total            0                       # Table walker requests started/completed, data/inst
system.cpu.dtb.walker.requestOrigin_Completed::Data            0                       # Table walker requests started/completed, data/inst
system.cpu.dtb.walker.requestOrigin_Completed::Inst            0                       # Table walker requests started/completed, data/inst
system.cpu.dtb.walker.requestOrigin_Completed::total            0                       # Table walker requests started/completed, data/inst
system.cpu.dtb.walker.requestOrigin::total            0                       # Table walker requests started/completed, data/inst
system.cpu.dtb.walker.power_state.pwrStateResidencyTicks::UNDEFINED 112892785000                       # Cumulative time (in ticks) in various power states
system.cpu.fetch2.intInstructions            49239576                       # Number of integer instructions successfully decoded
system.cpu.fetch2.fpInstructions                    0                       # Number of floating point instructions successfully decoded
system.cpu.fetch2.vecInstructions                   0                       # Number of SIMD instructions successfully decoded
system.cpu.fetch2.loadInstructions           17106640                       # Number of memory load instructions successfully decoded
system.cpu.fetch2.storeInstructions           9764080                       # Number of memory store instructions successfully decoded
system.cpu.fetch2.amoInstructions                   0                       # Number of memory atomic instructions successfully decoded
system.cpu.icache.demand_hits::.cpu.inst     28367380                       # number of demand (read+write) hits
system.cpu.icache.demand_hits::total         28367380                       # number of demand (read+write) hits
system.cpu.icache.overall_hits::.cpu.inst     28367380                       # number of overall hits
system.cpu.icache.overall_hits::total        28367380                       # number of overall hits
system.cpu.icache.demand_misses::.cpu.inst          770                       # number of demand (read+write) misses
system.cpu.icache.demand_misses::total            770                       # number of demand (read+write) misses
system.cpu.icache.overall_misses::.cpu.inst          770                       # number of overall misses
system.cpu.icache.overall_misses::total           770                       # number of overall misses
system.cpu.icache.demand_miss_latency::.cpu.inst     60119000                       # number of demand (read+write) miss cycles
system.cpu.icache.demand_miss_latency::total     60119000                       # number of demand (read+write) miss cycles
system.cpu.icache.overall_miss_latency::.cpu.inst     60119000                       # number of overall miss cycles
system.cpu.icache.overall_miss_latency::total     60119000                       # number of overall miss cycles
system.cpu.icache.demand_accesses::.cpu.inst     28368150                       # number of demand (read+write) accesses
system.cpu.icache.demand_accesses::total     28368150                       # number of demand (read+write) accesses
system.cpu.icache.overall_accesses::.cpu.inst     28368150                       # number of overall (read+write) accesses
system.cpu.icache.overall_accesses::total     28368150                       # number of overall (read+write) accesses
system.cpu.icache.demand_miss_rate::.cpu.inst     0.000027                       # miss rate for demand accesses
system.cpu.icache.demand_miss_rate::total     0.000027                       # miss rate for demand accesses
system.cpu.icache.overall_miss_rate::.cpu.inst     0.000027                       # miss rate for overall accesses
system.cpu.icache.overall_miss_rate::total     0.000027                       # miss rate for overall accesses
system.cpu.icache.demand_avg_miss_latency::.cpu.inst 78076.623377                       # average overall miss latency
system.cpu.icache.demand_avg_miss_latency::total 78076.623377                       # average overall miss latency
system.cpu.icache.overall_avg_miss_latency::.cpu.inst 78076.623377                       # average overall miss latency
system.cpu.icache.overall_avg_miss_latency::total 78076.623377                       # average overall miss latency
system.cpu.icache.blocked_cycles::no_mshrs            0                       # number of cycles access was blocked
system.cpu.icache.blocked_cycles::no_targets            0                       # number of cycles access was blocked
system.cpu.icache.blocked::no_mshrs                 0                       # number of cycles access was blocked
system.cpu.icache.blocked::no_targets               0                       # number of cycles access was blocked
system.cpu.icache.avg_blocked_cycles::no_mshrs          nan                       # average number of cycles each access was blocked
system.cpu.icache.avg_blocked_cycles::no_targets          nan                       # average number of cycles each access was blocked
system.cpu.icache.writebacks::.writebacks          314                       # number of writebacks
system.cpu.icache.writebacks::total               314                       # number of writebacks
system.cpu.icache.demand_mshr_misses::.cpu.inst          770                       # number of demand (read+write) MSHR misses
system.cpu.icache.demand_mshr_misses::total          770                       # number of demand (read+write) MSHR misses
system.cpu.icache.overall_mshr_misses::.cpu.inst          770                       # number of overall MSHR misses
system.cpu.icache.overall_mshr_misses::total          770                       # number of overall MSHR misses
system.cpu.icache.demand_mshr_miss_latency::.cpu.inst     58579000                       # number of demand (read+write) MSHR miss cycles
system.cpu.icache.demand_mshr_miss_latency::total     58579000                       # number of demand (read+write) MSHR miss cycles
system.cpu.icache.overall_mshr_miss_latency::.cpu.inst     58579000                       # number of overall MSHR miss cycles
system.cpu.icache.overall_mshr_miss_latency::total     58579000                       # number of overall MSHR miss cycles
system.cpu.icache.demand_mshr_miss_rate::.cpu.inst     0.000027                       # mshr miss rate for demand accesses
system.cpu.icache.demand_mshr_miss_rate::total     0.000027                       # mshr miss rate for demand accesses
system.cpu.icache.overall_mshr_miss_rate::.cpu.inst     0.000027                       # mshr miss rate for overall accesses
system.cpu.icache.overall_mshr_miss_rate::total     0.000027                       # mshr miss rate for overall accesses
system.cpu.icache.demand_avg_mshr_miss_latency::.cpu.inst 76076.623377                       # average overall mshr miss latency
system.cpu.icache.demand_avg_mshr_miss_latency::total 76076.623377                       # average overall mshr miss latency
system.cpu.icache.overall_avg_mshr_miss_latency::.cpu.inst 76076.623377                       # average overall mshr miss latency
system.cpu.icache.overall_avg_mshr_miss_latency::total 76076.623377                       # average overall mshr miss latency
system.cpu.icache.replacements                    314                       # number of replacements
system.cpu.icache.ReadReq_hits::.cpu.inst     28367380                       # number of ReadReq hits
system.cpu.icache.ReadReq_hits::total        28367380                       # number of ReadReq hits
system.cpu.icache.ReadReq_misses::.cpu.inst          770                       # number of ReadReq misses
system.cpu.icache.ReadReq_misses::total           770                       # number of ReadReq misses
system.cpu.icache.ReadReq_miss_latency::.cpu.inst     60119000                       # number of ReadReq miss cycles
system.cpu.icache.ReadReq_miss_latency::total     60119000                       # number of ReadReq miss cycles
system.cpu.icache.ReadReq_accesses::.cpu.inst     28368150                       # number of ReadReq accesses(hits+misses)
system.cpu.icache.ReadReq_accesses::total     28368150                       # number of ReadReq accesses(hits+misses)
system.cpu.icache.ReadReq_miss_rate::.cpu.inst     0.000027                       # miss rate for ReadReq accesses
system.cpu.icache.ReadReq_miss_rate::total     0.000027                       # miss rate for ReadReq accesses
system.cpu.icache.ReadReq_avg_miss_latency::.cpu.inst 78076.623377                       # average ReadReq miss latency
system.cpu.icache.ReadReq_avg_miss_latency::total 78076.623377                       # average ReadReq miss latency
system.cpu.icache.ReadReq_mshr_misses::.cpu.inst          770                       # number of ReadReq MSHR misses
system.cpu.icache.ReadReq_mshr_misses::total          770                       # number of ReadReq MSHR misses
system.cpu.icache.ReadReq_mshr_miss_latency::.cpu.inst     58579000                       # number of ReadReq MSHR miss cycles
system.cpu.icache.ReadReq_mshr_miss_latency::total     58579000                       # number of ReadReq MSHR miss cycles
system.cpu.icache.ReadReq_mshr_miss_rate::.cpu.inst     0.000027                       # mshr miss rate for ReadReq accesses
system.cpu.icache.ReadReq_mshr_miss_rate::total     0.000027                       # mshr miss rate for ReadReq accesses
system.cpu.icache.ReadReq_avg_mshr_miss_latency::.cpu.inst 76076.623377                       # average ReadReq mshr miss latency
system.cpu.icache.ReadReq_avg_mshr_miss_latency::total 76076.623377                       # average ReadReq mshr miss latency
system.cpu.icache.power_state.pwrStateResidencyTicks::UNDEFINED 112892785000                       # Cumulative time (in ticks) in various power states
system.cpu.icache.tags.tagsinuse           455.331538                       # Cycle average of tags in use
system.cpu.icache.tags.total_refs            28368150                       # Total number of references to valid blocks.
system.cpu.icache.tags.sampled_refs               770                       # Sample count of references to valid blocks.
system.cpu.icache.tags.avg_refs          36841.753247                       # Average number of references to valid blocks.
system.cpu.icache.tags.warmup_cycle            108000                       # Cycle when the warmup percentage was hit.
system.cpu.icache.tags.occ_blocks::.cpu.inst   455.331538                       # Average occupied blocks per requestor
system.cpu.icache.tags.occ_percent::.cpu.inst     0.444660                       # Average percentage of cache occupancy
system.cpu.icache.tags.occ_percent::total     0.444660                       # Average percentage of cache occupancy
system.cpu.icache.tags.occ_task_id_blocks::1024          456                       # Occupied blocks per task id
system.cpu.icache.tags.age_task_id_blocks_1024::3            1                       # Occupied blocks per task id
system.cpu.icache.tags.age_task_id_blocks_1024::4          455                       # Occupied blocks per task id
system.cpu.icache.tags.occ_task_id_percent::1024     0.445312                       # Percentage of cache occupancy per task id
system.cpu.icache.tags.tag_accesses          28368920                       # Number of tag accesses
system.cpu.icache.tags.data_accesses         28368920                       # Number of data accesses
system.cpu.icache.tags.power_state.pwrStateResidencyTicks::UNDEFINED 112892785000                       # Cumulative time (in ticks) in various power states
system.cpu.itb.instHits                             0                       # ITB inst hits
system.cpu.itb.instMisses                           0                       # ITB inst misses
system.cpu.itb.readHits                             0                       # DTB read hits
system.cpu.itb.readMisses                           0                       # DTB read misses
system.cpu.itb.writeHits                            0                       # DTB write hits
system.cpu.itb.writeMisses                          0                       # DTB write misses
system.cpu.itb.inserts                              0                       # Number of times an entry is inserted into the TLB
system.cpu.itb.flushTlb                             0                       # Number of times complete TLB was flushed
system.cpu.itb.flushTlbMva                          0                       # Number of times TLB was flushed by MVA
system.cpu.itb.flushTlbMvaAsid                      0                       # Number of times TLB was flushed by MVA & ASID
system.cpu.itb.flushTlbAsid                         0                       # Number of times TLB was flushed by ASID
system.cpu.itb.flushedEntries                       0                       # Number of entries that have been flushed from TLB
system.cpu.itb.alignFaults                          0                       # Number of TLB faults due to alignment restrictions
system.cpu.itb.prefetchFaults                       0                       # Number of TLB faults due to prefetch
system.cpu.itb.domainFaults                         0                       # Number of TLB faults due to domain restrictions
system.cpu.itb.permsFaults                          0                       # Number of TLB faults due to permissions restrictions
system.cpu.itb.readAccesses                         0                       # DTB read accesses
system.cpu.itb.writeAccesses                        0                       # DTB write accesses
system.cpu.itb.instAccesses                         0                       # ITB inst accesses
system.cpu.itb.hits                                 0                       # Total TLB (inst and data) hits
system.cpu.itb.misses                               0                       # Total TLB (inst and data) misses
system.cpu.itb.accesses                             0                       # Total TLB (inst and data) accesses
system.cpu.itb.stage2_mmu.stage2_tlb.instHits            0                       # ITB inst hits
system.cpu.itb.stage2_mmu.stage2_tlb.instMisses            0                       # ITB inst misses
system.cpu.itb.stage2_mmu.stage2_tlb.readHits            0                       # DTB read hits
system.cpu.itb.stage2_mmu.stage2_tlb.readMisses            0                       # DTB read misses
system.cpu.itb.stage2_mmu.stage2_tlb.writeHits            0                       # DTB write hits
system.cpu.itb.stage2_mmu.stage2_tlb.writeMisses            0                       # DTB write misses
system.cpu.itb.stage2_mmu.stage2_tlb.inserts            0                       # Number of times an entry is inserted into the TLB
system.cpu.itb.stage2_mmu.stage2_tlb.flushTlb            0                       # Number of times complete TLB was flushed
system.cpu.itb.stage2_mmu.stage2_tlb.flushTlbMva            0                       # Number of times TLB was flushed by MVA
system.cpu.itb.stage2_mmu.stage2_tlb.flushTlbMvaAsid            0                       # Number of times TLB was flushed by MVA & ASID
system.cpu.itb.stage2_mmu.stage2_tlb.flushTlbAsid            0                       # Number of times TLB was flushed by ASID
system.cpu.itb.stage2_mmu.stage2_tlb.flushedEntries            0                       # Number of entries that have been flushed from TLB
system.cpu.itb.stage2_mmu.stage2_tlb.alignFaults            0                       # Number of TLB faults due to alignment restrictions
system.cpu.itb.stage2_mmu.stage2_tlb.prefetchFaults            0                       # Number of TLB faults due to prefetch
system.cpu.itb.stage2_mmu.stage2_tlb.domainFaults            0                       # Number of TLB faults due to domain restrictions
system.cpu.itb.stage2_mmu.stage2_tlb.permsFaults            0                       # Number of TLB faults due to permissions restrictions
system.cpu.itb.stage2_mmu.stage2_tlb.readAccesses            0                       # DTB read accesses
system.cpu.itb.stage2_mmu.stage2_tlb.writeAccesses            0                       # DTB write accesses
system.cpu.itb.stage2_mmu.stage2_tlb.instAccesses            0                       # ITB inst accesses
system.cpu.itb.stage2_mmu.stage2_tlb.hits            0                       # Total TLB (inst and data) hits
system.cpu.itb.stage2_mmu.stage2_tlb.misses            0                       # Total TLB (inst and data) misses
system.cpu.itb.stage2_mmu.stage2_tlb.accesses            0                       # Total TLB (inst and data) accesses
system.cpu.itb.stage2_mmu.stage2_tlb.walker.walks            0                       # Table walker walks requested
system.cpu.itb.stage2_mmu.stage2_tlb.walker.requestOrigin_Requested::Data            0                       # Table walker requests started/completed, data/inst
system.cpu.itb.stage2_mmu.stage2_tlb.walker.requestOrigin_Requested::Inst            0                       # Table walker requests started/completed, data/inst
system.cpu.itb.stage2_mmu.stage2_tlb.walker.requestOrigin_Requested::total            0                       # Table walker requests started/completed, data/inst
system.cpu.itb.stage2_mmu.stage2_tlb.walker.requestOrigin_Completed::Data            0                       # Table walker requests started/completed, data/inst
system.cpu.itb.stage2_mmu.stage2_tlb.walker.requestOrigin_Completed::Inst            0                       # Table walker requests started/completed, data/inst
system.cpu.itb.stage2_mmu.stage2_tlb.walker.requestOrigin_Completed::total            0                       # Table walker requests started/completed, data/inst
system.cpu.itb.stage2_mmu.stage2_tlb.walker.requestOrigin::total            0                       # Table walker requests started/completed, data/inst
system.cpu.itb.stage2_mmu.stage2_tlb.walker.power_state.pwrStateResidencyTicks::UNDEFINED 112892785000                       # Cumulative time (in ticks) in various power states
system.cpu.itb.walker.walks                         0                       # Table walker walks requested
system.cpu.itb.walker.requestOrigin_Requested::Data            0                       # Table walker requests started/completed, data/inst
system.cpu.itb.walker.requestOrigin_Requested::Inst            0                       # Table walker requests started/completed, data/inst
system.cpu.itb.walker.requestOrigin_Requested::total            0                       # Table walker requests started/completed, data/inst
system.cpu.itb.walker.requestOrigin_Completed::Data            0                       # Table walker requests started/completed, data/inst
system.cpu.itb.walker.requestOrigin_Completed::Inst            0                       # Table walker requests started/completed, data/inst
system.cpu.itb.walker.requestOrigin_Completed::total            0                       # Table walker requests started/completed, data/inst
system.cpu.itb.walker.requestOrigin::total            0                       # Table walker requests started/completed, data/inst
system.cpu.itb.walker.power_state.pwrStateResidencyTicks::UNDEFINED 112892785000                       # Cumulative time (in ticks) in various power states
system.cpu.power_state.pwrStateResidencyTicks::ON 112892785000                       # Cumulative time (in ticks) in various power states
system.cpu.thread_0.numInsts                100000001                       # Number of Instructions committed
system.cpu.thread_0.numOps                  109431274                       # Number of Ops committed
system.cpu.thread_0.numMemRefs                      0                       # Number of Memory References
system.cpu_clk_domain.clock                      1000                       # Clock period in ticks
system.cpu_voltage_domain.voltage                   1                       # Voltage in Volts
system.l2.demand_hits::.cpu.inst                  249                       # number of demand (read+write) hits
system.l2.demand_hits::.cpu.data                47569                       # number of demand (read+write) hits
system.l2.demand_hits::total                    47818                       # number of demand (read+write) hits
system.l2.overall_hits::.cpu.inst                 249                       # number of overall hits
system.l2.overall_hits::.cpu.data               47569                       # number of overall hits
system.l2.overall_hits::total                   47818                       # number of overall hits
system.l2.demand_misses::.cpu.inst                521                       # number of demand (read+write) misses
system.l2.demand_misses::.cpu.data              42798                       # number of demand (read+write) misses
system.l2.demand_misses::total                  43319                       # number of demand (read+write) misses
system.l2.overall_misses::.cpu.inst               521                       # number of overall misses
system.l2.overall_misses::.cpu.data             42798                       # number of overall misses
system.l2.overall_misses::total                 43319                       # number of overall misses
system.l2.demand_miss_latency::.cpu.inst     51027000                       # number of demand (read+write) miss cycles
system.l2.demand_miss_latency::.cpu.data   4399459000                       # number of demand (read+write) miss cycles
system.l2.demand_miss_latency::total       4450486000                       # number of demand (read+write) miss cycles
system.l2.overall_miss_latency::.cpu.inst     51027000                       # number of overall miss cycles
system.l2.overall_miss_latency::.cpu.data   4399459000                       # number of overall miss cycles
system.l2.overall_miss_latency::total      4450486000                       # number of overall miss cycles
system.l2.demand_accesses::.cpu.inst              770                       # number of demand (read+write) accesses
system.l2.demand_accesses::.cpu.data            90367                       # number of demand (read+write) accesses
system.l2.demand_accesses::total                91137                       # number of demand (read+write) accesses
system.l2.overall_accesses::.cpu.inst             770                       # number of overall (read+write) accesses
system.l2.overall_accesses::.cpu.data           90367                       # number of overall (read+write) accesses
system.l2.overall_accesses::total               91137                       # number of overall (read+write) accesses
system.l2.demand_miss_rate::.cpu.inst        0.676623                       # miss rate for demand accesses
system.l2.demand_miss_rate::.cpu.data        0.473602                       # miss rate for demand accesses
system.l2.demand_miss_rate::total            0.475317                       # miss rate for demand accesses
system.l2.overall_miss_rate::.cpu.inst       0.676623                       # miss rate for overall accesses
system.l2.overall_miss_rate::.cpu.data       0.473602                       # miss rate for overall accesses
system.l2.overall_miss_rate::total           0.475317                       # miss rate for overall accesses
system.l2.demand_avg_miss_latency::.cpu.inst 97940.499040                       # average overall miss latency
system.l2.demand_avg_miss_latency::.cpu.data 102795.901678                       # average overall miss latency
system.l2.demand_avg_miss_latency::total 102737.505483                       # average overall miss latency
system.l2.overall_avg_miss_latency::.cpu.inst 97940.499040                       # average overall miss latency
system.l2.overall_avg_miss_latency::.cpu.data 102795.901678                       # average overall miss latency
system.l2.overall_avg_miss_latency::total 102737.505483                       # average overall miss latency
system.l2.blocked_cycles::no_mshrs                  0                       # number of cycles access was blocked
system.l2.blocked_cycles::no_targets                0                       # number of cycles access was blocked
system.l2.blocked::no_mshrs                         0                       # number of cycles access was blocked
system.l2.blocked::no_targets                       0                       # number of cycles access was blocked
system.l2.avg_blocked_cycles::no_mshrs            nan                       # average number of cycles each access was blocked
system.l2.avg_blocked_cycles::no_targets          nan                       # average number of cycles each access was blocked
system.l2.writebacks::.writebacks               26341                       # number of writebacks
system.l2.writebacks::total                     26341                       # number of writebacks
system.l2.demand_mshr_hits::.cpu.inst               1                       # number of demand (read+write) MSHR hits
system.l2.demand_mshr_hits::.cpu.data               5                       # number of demand (read+write) MSHR hits
system.l2.demand_mshr_hits::total                   6                       # number of demand (read+write) MSHR hits
system.l2.overall_mshr_hits::.cpu.inst              1                       # number of overall MSHR hits
system.l2.overall_mshr_hits::.cpu.data              5                       # number of overall MSHR hits
system.l2.overall_mshr_hits::total                  6                       # number of overall MSHR hits
system.l2.demand_mshr_misses::.cpu.inst           520                       # number of demand (read+write) MSHR misses
system.l2.demand_mshr_misses::.cpu.data         42793                       # number of demand (read+write) MSHR misses
system.l2.demand_mshr_misses::total             43313                       # number of demand (read+write) MSHR misses
system.l2.overall_mshr_misses::.cpu.inst          520                       # number of overall MSHR misses
system.l2.overall_mshr_misses::.cpu.data        42793                       # number of overall MSHR misses
system.l2.overall_mshr_misses::total            43313                       # number of overall MSHR misses
system.l2.demand_mshr_miss_latency::.cpu.inst     40547000                       # number of demand (read+write) MSHR miss cycles
system.l2.demand_mshr_miss_latency::.cpu.data   3543193000                       # number of demand (read+write) MSHR miss cycles
system.l2.demand_mshr_miss_latency::total   3583740000                       # number of demand (read+write) MSHR miss cycles
system.l2.overall_mshr_miss_latency::.cpu.inst     40547000                       # number of overall MSHR miss cycles
system.l2.overall_mshr_miss_latency::.cpu.data   3543193000                       # number of overall MSHR miss cycles
system.l2.overall_mshr_miss_latency::total   3583740000                       # number of overall MSHR miss cycles
system.l2.demand_mshr_miss_rate::.cpu.inst     0.675325                       # mshr miss rate for demand accesses
system.l2.demand_mshr_miss_rate::.cpu.data     0.473547                       # mshr miss rate for demand accesses
system.l2.demand_mshr_miss_rate::total       0.475252                       # mshr miss rate for demand accesses
system.l2.overall_mshr_miss_rate::.cpu.inst     0.675325                       # mshr miss rate for overall accesses
system.l2.overall_mshr_miss_rate::.cpu.data     0.473547                       # mshr miss rate for overall accesses
system.l2.overall_mshr_miss_rate::total      0.475252                       # mshr miss rate for overall accesses
system.l2.demand_avg_mshr_miss_latency::.cpu.inst        77975                       # average overall mshr miss latency
system.l2.demand_avg_mshr_miss_latency::.cpu.data 82798.424976                       # average overall mshr miss latency
system.l2.demand_avg_mshr_miss_latency::total 82740.516704                       # average overall mshr miss latency
system.l2.overall_avg_mshr_miss_latency::.cpu.inst        77975                       # average overall mshr miss latency
system.l2.overall_avg_mshr_miss_latency::.cpu.data 82798.424976                       # average overall mshr miss latency
system.l2.overall_avg_mshr_miss_latency::total 82740.516704                       # average overall mshr miss latency
system.l2.replacements                          26951                       # number of replacements
system.l2.WritebackDirty_hits::.writebacks        72129                       # number of WritebackDirty hits
system.l2.WritebackDirty_hits::total            72129                       # number of WritebackDirty hits
system.l2.WritebackDirty_accesses::.writebacks        72129                       # number of WritebackDirty accesses(hits+misses)
system.l2.WritebackDirty_accesses::total        72129                       # number of WritebackDirty accesses(hits+misses)
system.l2.WritebackClean_hits::.writebacks          310                       # number of WritebackClean hits
system.l2.WritebackClean_hits::total              310                       # number of WritebackClean hits
system.l2.WritebackClean_accesses::.writebacks          310                       # number of WritebackClean accesses(hits+misses)
system.l2.WritebackClean_accesses::total          310                       # number of WritebackClean accesses(hits+misses)
system.l2.CleanEvict_mshr_misses::.writebacks            4                       # number of CleanEvict MSHR misses
system.l2.CleanEvict_mshr_misses::total             4                       # number of CleanEvict MSHR misses
system.l2.CleanEvict_mshr_miss_rate::.writebacks          inf                       # mshr miss rate for CleanEvict accesses
system.l2.CleanEvict_mshr_miss_rate::total          inf                       # mshr miss rate for CleanEvict accesses
system.l2.ReadExReq_hits::.cpu.data              8699                       # number of ReadExReq hits
system.l2.ReadExReq_hits::total                  8699                       # number of ReadExReq hits
system.l2.ReadExReq_misses::.cpu.data           38810                       # number of ReadExReq misses
system.l2.ReadExReq_misses::total               38810                       # number of ReadExReq misses
system.l2.ReadExReq_miss_latency::.cpu.data   3961510000                       # number of ReadExReq miss cycles
system.l2.ReadExReq_miss_latency::total    3961510000                       # number of ReadExReq miss cycles
system.l2.ReadExReq_accesses::.cpu.data         47509                       # number of ReadExReq accesses(hits+misses)
system.l2.ReadExReq_accesses::total             47509                       # number of ReadExReq accesses(hits+misses)
system.l2.ReadExReq_miss_rate::.cpu.data     0.816898                       # miss rate for ReadExReq accesses
system.l2.ReadExReq_miss_rate::total         0.816898                       # miss rate for ReadExReq accesses
system.l2.ReadExReq_avg_miss_latency::.cpu.data 102074.465344                       # average ReadExReq miss latency
system.l2.ReadExReq_avg_miss_latency::total 102074.465344                       # average ReadExReq miss latency
system.l2.ReadExReq_mshr_misses::.cpu.data        38810                       # number of ReadExReq MSHR misses
system.l2.ReadExReq_mshr_misses::total          38810                       # number of ReadExReq MSHR misses
system.l2.ReadExReq_mshr_miss_latency::.cpu.data   3185310000                       # number of ReadExReq MSHR miss cycles
system.l2.ReadExReq_mshr_miss_latency::total   3185310000                       # number of ReadExReq MSHR miss cycles
system.l2.ReadExReq_mshr_miss_rate::.cpu.data     0.816898                       # mshr miss rate for ReadExReq accesses
system.l2.ReadExReq_mshr_miss_rate::total     0.816898                       # mshr miss rate for ReadExReq accesses
system.l2.ReadExReq_avg_mshr_miss_latency::.cpu.data 82074.465344                       # average ReadExReq mshr miss latency
system.l2.ReadExReq_avg_mshr_miss_latency::total 82074.465344                       # average ReadExReq mshr miss latency
system.l2.ReadCleanReq_hits::.cpu.inst            249                       # number of ReadCleanReq hits
system.l2.ReadCleanReq_hits::total                249                       # number of ReadCleanReq hits
system.l2.ReadCleanReq_misses::.cpu.inst          521                       # number of ReadCleanReq misses
system.l2.ReadCleanReq_misses::total              521                       # number of ReadCleanReq misses
system.l2.ReadCleanReq_miss_latency::.cpu.inst     51027000                       # number of ReadCleanReq miss cycles
system.l2.ReadCleanReq_miss_latency::total     51027000                       # number of ReadCleanReq miss cycles
system.l2.ReadCleanReq_accesses::.cpu.inst          770                       # number of ReadCleanReq accesses(hits+misses)
system.l2.ReadCleanReq_accesses::total            770                       # number of ReadCleanReq accesses(hits+misses)
system.l2.ReadCleanReq_miss_rate::.cpu.inst     0.676623                       # miss rate for ReadCleanReq accesses
system.l2.ReadCleanReq_miss_rate::total      0.676623                       # miss rate for ReadCleanReq accesses
system.l2.ReadCleanReq_avg_miss_latency::.cpu.inst 97940.499040                       # average ReadCleanReq miss latency
system.l2.ReadCleanReq_avg_miss_latency::total 97940.499040                       # average ReadCleanReq miss latency
system.l2.ReadCleanReq_mshr_hits::.cpu.inst            1                       # number of ReadCleanReq MSHR hits
system.l2.ReadCleanReq_mshr_hits::total             1                       # number of ReadCleanReq MSHR hits
system.l2.ReadCleanReq_mshr_misses::.cpu.inst          520                       # number of ReadCleanReq MSHR misses
system.l2.ReadCleanReq_mshr_misses::total          520                       # number of ReadCleanReq MSHR misses
system.l2.ReadCleanReq_mshr_miss_latency::.cpu.inst     40547000                       # number of ReadCleanReq MSHR miss cycles
system.l2.ReadCleanReq_mshr_miss_latency::total     40547000                       # number of ReadCleanReq MSHR miss cycles
system.l2.ReadCleanReq_mshr_miss_rate::.cpu.inst     0.675325                       # mshr miss rate for ReadCleanReq accesses
system.l2.ReadCleanReq_mshr_miss_rate::total     0.675325                       # mshr miss rate for ReadCleanReq accesses
system.l2.ReadCleanReq_avg_mshr_miss_latency::.cpu.inst        77975                       # average ReadCleanReq mshr miss latency
system.l2.ReadCleanReq_avg_mshr_miss_latency::total        77975                       # average ReadCleanReq mshr miss latency
system.l2.ReadSharedReq_hits::.cpu.data         38870                       # number of ReadSharedReq hits
system.l2.ReadSharedReq_hits::total             38870                       # number of ReadSharedReq hits
system.l2.ReadSharedReq_misses::.cpu.data         3988                       # number of ReadSharedReq misses
system.l2.ReadSharedReq_misses::total            3988                       # number of ReadSharedReq misses
system.l2.ReadSharedReq_miss_latency::.cpu.data    437949000                       # number of ReadSharedReq miss cycles
system.l2.ReadSharedReq_miss_latency::total    437949000                       # number of ReadSharedReq miss cycles
system.l2.ReadSharedReq_accesses::.cpu.data        42858                       # number of ReadSharedReq accesses(hits+misses)
system.l2.ReadSharedReq_accesses::total         42858                       # number of ReadSharedReq accesses(hits+misses)
system.l2.ReadSharedReq_miss_rate::.cpu.data     0.093051                       # miss rate for ReadSharedReq accesses
system.l2.ReadSharedReq_miss_rate::total     0.093051                       # miss rate for ReadSharedReq accesses
system.l2.ReadSharedReq_avg_miss_latency::.cpu.data 109816.700100                       # average ReadSharedReq miss latency
system.l2.ReadSharedReq_avg_miss_latency::total 109816.700100                       # average ReadSharedReq miss latency
system.l2.ReadSharedReq_mshr_hits::.cpu.data            5                       # number of ReadSharedReq MSHR hits
system.l2.ReadSharedReq_mshr_hits::total            5                       # number of ReadSharedReq MSHR hits
system.l2.ReadSharedReq_mshr_misses::.cpu.data         3983                       # number of ReadSharedReq MSHR misses
system.l2.ReadSharedReq_mshr_misses::total         3983                       # number of ReadSharedReq MSHR misses
system.l2.ReadSharedReq_mshr_miss_latency::.cpu.data    357883000                       # number of ReadSharedReq MSHR miss cycles
system.l2.ReadSharedReq_mshr_miss_latency::total    357883000                       # number of ReadSharedReq MSHR miss cycles
system.l2.ReadSharedReq_mshr_miss_rate::.cpu.data     0.092935                       # mshr miss rate for ReadSharedReq accesses
system.l2.ReadSharedReq_mshr_miss_rate::total     0.092935                       # mshr miss rate for ReadSharedReq accesses
system.l2.ReadSharedReq_avg_mshr_miss_latency::.cpu.data 89852.623651                       # average ReadSharedReq mshr miss latency
system.l2.ReadSharedReq_avg_mshr_miss_latency::total 89852.623651                       # average ReadSharedReq mshr miss latency
system.l2.power_state.pwrStateResidencyTicks::UNDEFINED 112892785000                       # Cumulative time (in ticks) in various power states
system.l2.tags.tagsinuse                 15589.698248                       # Cycle average of tags in use
system.l2.tags.total_refs                      179211                       # Total number of references to valid blocks.
system.l2.tags.sampled_refs                     43335                       # Sample count of references to valid blocks.
system.l2.tags.avg_refs                      4.135479                       # Average number of references to valid blocks.
system.l2.tags.warmup_cycle                     87000                       # Cycle when the warmup percentage was hit.
system.l2.tags.occ_blocks::.writebacks       7.221763                       # Average occupied blocks per requestor
system.l2.tags.occ_blocks::.cpu.inst        49.459539                       # Average occupied blocks per requestor
system.l2.tags.occ_blocks::.cpu.data     15533.016946                       # Average occupied blocks per requestor
system.l2.tags.occ_percent::.writebacks      0.000441                       # Average percentage of cache occupancy
system.l2.tags.occ_percent::.cpu.inst        0.003019                       # Average percentage of cache occupancy
system.l2.tags.occ_percent::.cpu.data        0.948060                       # Average percentage of cache occupancy
system.l2.tags.occ_percent::total            0.951520                       # Average percentage of cache occupancy
system.l2.tags.occ_task_id_blocks::1024         16384                       # Occupied blocks per task id
system.l2.tags.age_task_id_blocks_1024::0            1                       # Occupied blocks per task id
system.l2.tags.age_task_id_blocks_1024::1           18                       # Occupied blocks per task id
system.l2.tags.age_task_id_blocks_1024::2          227                       # Occupied blocks per task id
system.l2.tags.age_task_id_blocks_1024::3         2483                       # Occupied blocks per task id
system.l2.tags.age_task_id_blocks_1024::4        13655                       # Occupied blocks per task id
system.l2.tags.occ_task_id_percent::1024            1                       # Percentage of cache occupancy per task id
system.l2.tags.tag_accesses                    401777                       # Number of tag accesses
system.l2.tags.data_accesses                   401777                       # Number of data accesses
system.l2.tags.power_state.pwrStateResidencyTicks::UNDEFINED 112892785000                       # Cumulative time (in ticks) in various power states
system.mem_ctrls.avgPriority_.writebacks::samples     26341.00                       # Average QoS priority value for accepted requests
system.mem_ctrls.avgPriority_.cpu.inst::samples       520.00                       # Average QoS priority value for accepted requests
system.mem_ctrls.avgPriority_.cpu.data::samples     42782.00                       # Average QoS priority value for accepted requests
system.mem_ctrls.priorityMinLatency      0.000000018750                       # per QoS priority minimum request to response latency (s)
system.mem_ctrls.priorityMaxLatency      0.008611220500                       # per QoS priority maximum request to response latency (s)
system.mem_ctrls.numReadWriteTurnArounds         1464                       # Number of turnarounds from READ to WRITE
system.mem_ctrls.numWriteReadTurnArounds         1464                       # Number of turnarounds from WRITE to READ
system.mem_ctrls.numStayReadState              141691                       # Number of times bus staying in READ state
system.mem_ctrls.numStayWriteState              24900                       # Number of times bus staying in WRITE state
system.mem_ctrls.readReqs                       43313                       # Number of read requests accepted
system.mem_ctrls.writeReqs                      26341                       # Number of write requests accepted
system.mem_ctrls.readBursts                     43313                       # Number of controller read bursts, including those serviced by the write queue
system.mem_ctrls.writeBursts                    26341                       # Number of controller write bursts, including those merged in the write queue
system.mem_ctrls.servicedByWrQ                     11                       # Number of controller read bursts serviced by the write queue
system.mem_ctrls.mergedWrBursts                     0                       # Number of controller write bursts merged with an existing one
system.mem_ctrls.neitherReadNorWriteReqs            0                       # Number of requests that are neither read nor write
system.mem_ctrls.avgRdQLen                       1.03                       # Average read queue length when enqueuing
system.mem_ctrls.avgWrQLen                      22.89                       # Average write queue length when enqueuing
system.mem_ctrls.numRdRetry                         0                       # Number of times read queue was full causing retry
[...]
system.mem_ctrls.dram.bw_write::.writebacks     14932965                       # Write bandwidth from this memory (bytes/s)
system.mem_ctrls.dram.bw_write::total        14932965                       # Write bandwidth from this memory (bytes/s)
system.mem_ctrls.dram.bw_total::.writebacks     14932965                       # Total bandwidth to/from this memory (bytes/s)
system.mem_ctrls.dram.bw_total::.cpu.inst       294793                       # Total bandwidth to/from this memory (bytes/s)
system.mem_ctrls.dram.bw_total::.cpu.data     24259761                       # Total bandwidth to/from this memory (bytes/s)
system.mem_ctrls.dram.bw_total::total        39487519                       # Total bandwidth to/from this memory (bytes/s)
system.mem_ctrls.dram.readBursts                43302                       # Number of DRAM read bursts
system.mem_ctrls.dram.writeBursts               26311                       # Number of DRAM write bursts
system.mem_ctrls.dram.perBankRdBursts::0         2752                       # Per bank write bursts
system.mem_ctrls.dram.perBankRdBursts::1         2669                       # Per bank write bursts
system.mem_ctrls.dram.perBankRdBursts::2         2703                       # Per bank write bursts
system.mem_ctrls.dram.perBankRdBursts::3         2782                       # Per bank write bursts
system.mem_ctrls.dram.perBankRdBursts::4         2715                       # Per bank write bursts
system.mem_ctrls.dram.perBankRdBursts::5         2573                       # Per bank write bursts
system.mem_ctrls.dram.perBankRdBursts::6         2666                       # Per bank write bursts
system.mem_ctrls.dram.perBankRdBursts::7         2751                       # Per bank write bursts
system.mem_ctrls.dram.perBankRdBursts::8         2679                       # Per bank write bursts
system.mem_ctrls.dram.perBankRdBursts::9         2715                       # Per bank write bursts
system.mem_ctrls.dram.perBankRdBursts::10         2741                       # Per bank write bursts
system.mem_ctrls.dram.perBankRdBursts::11         2709                       # Per bank write bursts
system.mem_ctrls.dram.perBankRdBursts::12         2712                       # Per bank write bursts
system.mem_ctrls.dram.perBankRdBursts::13         2714                       # Per bank write bursts
system.mem_ctrls.dram.perBankRdBursts::14         2702                       # Per bank write bursts
system.mem_ctrls.dram.perBankRdBursts::15         2719                       # Per bank write bursts
system.mem_ctrls.dram.perBankWrBursts::0         1685                       # Per bank write bursts
system.mem_ctrls.dram.perBankWrBursts::1         1610                       # Per bank write bursts
system.mem_ctrls.dram.perBankWrBursts::2         1666                       # Per bank write bursts
system.mem_ctrls.dram.perBankWrBursts::3         1671                       # Per bank write bursts
system.mem_ctrls.dram.perBankWrBursts::4         1643                       # Per bank write bursts
system.mem_ctrls.dram.perBankWrBursts::5         1550                       # Per bank write bursts
system.mem_ctrls.dram.perBankWrBursts::6         1643                       # Per bank write bursts
system.mem_ctrls.dram.perBankWrBursts::7         1700                       # Per bank write bursts
system.mem_ctrls.dram.perBankWrBursts::8         1628                       # Per bank write bursts
system.mem_ctrls.dram.perBankWrBursts::9         1639                       # Per bank write bursts
system.mem_ctrls.dram.perBankWrBursts::10         1676                       # Per bank write bursts
system.mem_ctrls.dram.perBankWrBursts::11         1624                       # Per bank write bursts
system.mem_ctrls.dram.perBankWrBursts::12         1638                       # Per bank write bursts
system.mem_ctrls.dram.perBankWrBursts::13         1665                       # Per bank write bursts
system.mem_ctrls.dram.perBankWrBursts::14         1605                       # Per bank write bursts
system.mem_ctrls.dram.perBankWrBursts::15         1668                       # Per bank write bursts
system.mem_ctrls.dram.totQLat               546756250                       # Total ticks spent queuing
system.mem_ctrls.dram.totBusLat             216510000                       # Total ticks spent in databus transfers
system.mem_ctrls.dram.totMemAccLat         1358668750                       # Total ticks spent from burst creation until serviced by the DRAM
system.mem_ctrls.dram.avgQLat                12626.58                       # Average queueing delay per DRAM burst
system.mem_ctrls.dram.avgBusLat               5000.00                       # Average bus latency per DRAM burst
system.mem_ctrls.dram.avgMemAccLat           31376.58                       # Average memory access latency per DRAM burst
system.mem_ctrls.dram.readRowHits               21836                       # Number of row buffer hits during reads
system.mem_ctrls.dram.writeRowHits              20355                       # Number of row buffer hits during writes
system.mem_ctrls.dram.readRowHitRate            50.43                       # Row buffer hit rate for reads
system.mem_ctrls.dram.writeRowHitRate           77.36                       # Row buffer hit rate for writes
system.mem_ctrls.dram.bytesPerActivate::samples        27421                       # Bytes accessed per row activation
system.mem_ctrls.dram.bytesPerActivate::mean   162.472849                       # Bytes accessed per row activation
system.mem_ctrls.dram.bytesPerActivate::gmean   111.928154                       # Bytes accessed per row activation
system.mem_ctrls.dram.bytesPerActivate::stdev   196.461583                       # Bytes accessed per row activation
system.mem_ctrls.dram.bytesPerActivate::0-127        14351     52.34%     52.34% # Bytes accessed per row activation
system.mem_ctrls.dram.bytesPerActivate::128-255         8736     31.86%     84.19% # Bytes accessed per row activation
system.mem_ctrls.dram.bytesPerActivate::256-383         1277      4.66%     88.85% # Bytes accessed per row activation
system.mem_ctrls.dram.bytesPerActivate::384-511         1018      3.71%     92.56% # Bytes accessed per row activation
system.mem_ctrls.dram.bytesPerActivate::512-639          769      2.80%     95.37% # Bytes accessed per row activation
system.mem_ctrls.dram.bytesPerActivate::640-767          236      0.86%     96.23% # Bytes accessed per row activation
system.mem_ctrls.dram.bytesPerActivate::768-895          223      0.81%     97.04% # Bytes accessed per row activation
system.mem_ctrls.dram.bytesPerActivate::896-1023          245      0.89%     97.94% # Bytes accessed per row activation
system.mem_ctrls.dram.bytesPerActivate::1024-1151          566      2.06%    100.00% # Bytes accessed per row activation
system.mem_ctrls.dram.bytesPerActivate::total        27421                       # Bytes accessed per row activation
system.mem_ctrls.dram.bytesRead               2771328                       # Total number of bytes read from DRAM
system.mem_ctrls.dram.bytesWritten            1683904                       # Total number of bytes written to DRAM
system.mem_ctrls.dram.avgRdBW               24.548318                       # Average DRAM read bandwidth in MiBytes/s
system.mem_ctrls.dram.avgWrBW               14.915958                       # Average DRAM write bandwidth in MiBytes/s
system.mem_ctrls.dram.peakBW                 12800.00                       # Theoretical peak bandwidth in MiByte/s
system.mem_ctrls.dram.busUtil                    0.31                       # Data bus utilization in percentage
system.mem_ctrls.dram.busUtilRead                0.19                       # Data bus utilization in percentage for reads
system.mem_ctrls.dram.busUtilWrite               0.12                       # Data bus utilization in percentage for writes
system.mem_ctrls.dram.pageHitRate               60.61                       # Row buffer hit rate, read and write combined
system.mem_ctrls.dram.power_state.pwrStateResidencyTicks::UNDEFINED 112892785000                       # Cumulative time (in ticks) in various power states
system.mem_ctrls.dram.rank0.actEnergy        99610140                       # Energy for activate commands per rank (pJ)
system.mem_ctrls.dram.rank0.preEnergy        52940250                       # Energy for precharge commands per rank (pJ)
system.mem_ctrls.dram.rank0.readEnergy      154302540                       # Energy for read commands per rank (pJ)
system.mem_ctrls.dram.rank0.writeEnergy      68736960                       # Energy for write commands per rank (pJ)
system.mem_ctrls.dram.rank0.refreshEnergy 8911050720.000002                       # Energy for refresh commands per rank (pJ)
system.mem_ctrls.dram.rank0.actBackEnergy  22410915720                       # Energy for active background per rank (pJ)
system.mem_ctrls.dram.rank0.preBackEnergy  24478479360                       # Energy for precharge background per rank (pJ)
system.mem_ctrls.dram.rank0.actPowerDownEnergy            0                       # Energy for active power-down per rank (pJ)
system.mem_ctrls.dram.rank0.prePowerDownEnergy            0                       # Energy for precharge power-down per rank (pJ)
system.mem_ctrls.dram.rank0.selfRefreshEnergy            0                       # Energy for self refresh per rank (pJ)
system.mem_ctrls.dram.rank0.totalEnergy   56176035690                       # Total energy per rank (pJ)
system.mem_ctrls.dram.rank0.averagePower   497.605190                       # Core power per rank (mW)
system.mem_ctrls.dram.rank0.totalIdleTime            0                       # Total Idle time Per DRAM Rank
system.mem_ctrls.dram.rank0.pwrStateTime::IDLE  63417111750                       # Time in different power states
system.mem_ctrls.dram.rank0.pwrStateTime::REF   3769480000                       # Time in different power states
system.mem_ctrls.dram.rank0.pwrStateTime::SREF            0                       # Time in different power states
system.mem_ctrls.dram.rank0.pwrStateTime::PRE_PDN            0                       # Time in different power states
system.mem_ctrls.dram.rank0.pwrStateTime::ACT  45706193250                       # Time in different power states
system.mem_ctrls.dram.rank0.pwrStateTime::ACT_PDN            0                       # Time in different power states
system.mem_ctrls.dram.rank1.actEnergy        96182940                       # Energy for activate commands per rank (pJ)
system.mem_ctrls.dram.rank1.preEnergy        51122445                       # Energy for precharge commands per rank (pJ)
system.mem_ctrls.dram.rank1.readEnergy      154873740                       # Energy for read commands per rank (pJ)
system.mem_ctrls.dram.rank1.writeEnergy      68606460                       # Energy for write commands per rank (pJ)
system.mem_ctrls.dram.rank1.refreshEnergy 8911050720.000002                       # Energy for refresh commands per rank (pJ)
system.mem_ctrls.dram.rank1.actBackEnergy  22288136580                       # Energy for active background per rank (pJ)
system.mem_ctrls.dram.rank1.preBackEnergy  24581872320                       # Energy for precharge background per rank (pJ)
system.mem_ctrls.dram.rank1.actPowerDownEnergy            0                       # Energy for active power-down per rank (pJ)
system.mem_ctrls.dram.rank1.prePowerDownEnergy            0                       # Energy for precharge power-down per rank (pJ)
system.mem_ctrls.dram.rank1.selfRefreshEnergy            0                       # Energy for self refresh per rank (pJ)
system.mem_ctrls.dram.rank1.totalEnergy   56151845205                       # Total energy per rank (pJ)
system.mem_ctrls.dram.rank1.averagePower   497.390911                       # Core power per rank (mW)
system.mem_ctrls.dram.rank1.totalIdleTime            0                       # Total Idle time Per DRAM Rank
system.mem_ctrls.dram.rank1.pwrStateTime::IDLE  63686181750                       # Time in different power states
system.mem_ctrls.dram.rank1.pwrStateTime::REF   3769480000                       # Time in different power states
system.mem_ctrls.dram.rank1.pwrStateTime::SREF            0                       # Time in different power states
system.mem_ctrls.dram.rank1.pwrStateTime::PRE_PDN            0                       # Time in different power states
system.mem_ctrls.dram.rank1.pwrStateTime::ACT  45437123250                       # Time in different power states
system.mem_ctrls.dram.rank1.pwrStateTime::ACT_PDN            0                       # Time in different power states
system.mem_ctrls.power_state.pwrStateResidencyTicks::UNDEFINED 112892785000                       # Cumulative time (in ticks) in various power states
system.membus.trans_dist::ReadResp               4503                       # Transaction distribution
system.membus.trans_dist::WritebackDirty        26341                       # Transaction distribution
system.membus.trans_dist::CleanEvict              137                       # Transaction distribution
system.membus.trans_dist::ReadExReq             38810                       # Transaction distribution
system.membus.trans_dist::ReadExResp            38810                       # Transaction distribution
system.membus.trans_dist::ReadSharedReq          4503                       # Transaction distribution
system.membus.pkt_count_system.l2.mem_side_port::system.mem_ctrls.port       113104                       # Packet count per connected requestor and responder (bytes)
system.membus.pkt_count::total                 113104                       # Packet count per connected requestor and responder (bytes)
system.membus.pkt_size_system.l2.mem_side_port::system.mem_ctrls.port      4457856                       # Cumulative packet size per connected requestor and responder (bytes)
system.membus.pkt_size::total                 4457856                       # Cumulative packet size per connected requestor and responder (bytes)
system.membus.snoops                                0                       # Total snoops (count)
system.membus.snoopTraffic                          0                       # Total snoop traffic (bytes)
system.membus.snoop_fanout::samples             43313                       # Request fanout histogram
system.membus.snoop_fanout::mean                    0                       # Request fanout histogram
system.membus.snoop_fanout::stdev                   0                       # Request fanout histogram
system.membus.snoop_fanout::underflows              0      0.00%      0.00% # Request fanout histogram
system.membus.snoop_fanout::0                   43313    100.00%    100.00% # Request fanout histogram
system.membus.snoop_fanout::1                       0      0.00%    100.00% # Request fanout histogram
system.membus.snoop_fanout::overflows               0      0.00%    100.00% # Request fanout histogram
system.membus.snoop_fanout::min_value               0                       # Request fanout histogram
system.membus.snoop_fanout::max_value               0                       # Request fanout histogram
system.membus.snoop_fanout::total               43313                       # Request fanout histogram
system.membus.power_state.pwrStateResidencyTicks::UNDEFINED 112892785000                       # Cumulative time (in ticks) in various power states
system.membus.reqLayer0.occupancy           175155000                       # Layer occupancy (ticks)
system.membus.reqLayer0.utilization               0.2                       # Layer utilization (%)
system.membus.respLayer1.occupancy          232772500                       # Layer occupancy (ticks)
system.membus.respLayer1.utilization              0.2                       # Layer utilization (%)
system.tol2bus.trans_dist::ReadResp             43628                       # Transaction distribution
system.tol2bus.trans_dist::WritebackDirty        98470                       # Transaction distribution
system.tol2bus.trans_dist::WritebackClean          314                       # Transaction distribution
system.tol2bus.trans_dist::CleanEvict           18336                       # Transaction distribution
system.tol2bus.trans_dist::ReadExReq            47509                       # Transaction distribution
system.tol2bus.trans_dist::ReadExResp           47509                       # Transaction distribution
system.tol2bus.trans_dist::ReadCleanReq           770                       # Transaction distribution
system.tol2bus.trans_dist::ReadSharedReq        42858                       # Transaction distribution
system.tol2bus.pkt_count_system.cpu.icache.mem_side_port::system.l2.cpu_side_port         1854                       # Packet count per connected requestor and responder (bytes)
system.tol2bus.pkt_count_system.cpu.dcache.mem_side_port::system.l2.cpu_side_port       270589                       # Packet count per connected requestor and responder (bytes)
system.tol2bus.pkt_count::total                272443                       # Packet count per connected requestor and responder (bytes)
system.tol2bus.pkt_size_system.cpu.icache.mem_side_port::system.l2.cpu_side_port        69376                       # Cumulative packet size per connected requestor and responder (bytes)
system.tol2bus.pkt_size_system.cpu.dcache.mem_side_port::system.l2.cpu_side_port     10399744                       # Cumulative packet size per connected requestor and responder (bytes)
system.tol2bus.pkt_size::total               10469120                       # Cumulative packet size per connected requestor and responder (bytes)
system.tol2bus.snoops                           26951                       # Total snoops (count)
system.tol2bus.snoopTraffic                   1685824                       # Total snoop traffic (bytes)
system.tol2bus.snoop_fanout::samples           118088                       # Request fanout histogram
system.tol2bus.snoop_fanout::mean            0.021730                       # Request fanout histogram
system.tol2bus.snoop_fanout::stdev           0.145800                       # Request fanout histogram
system.tol2bus.snoop_fanout::underflows             0      0.00%      0.00% # Request fanout histogram
system.tol2bus.snoop_fanout::0                 115522     97.83%     97.83% # Request fanout histogram
system.tol2bus.snoop_fanout::1                   2566      2.17%    100.00% # Request fanout histogram
system.tol2bus.snoop_fanout::2                      0      0.00%    100.00% # Request fanout histogram
system.tol2bus.snoop_fanout::overflows              0      0.00%    100.00% # Request fanout histogram
system.tol2bus.snoop_fanout::min_value              0                       # Request fanout histogram
system.tol2bus.snoop_fanout::max_value              1                       # Request fanout histogram
system.tol2bus.snoop_fanout::total             118088                       # Request fanout histogram
system.tol2bus.power_state.pwrStateResidencyTicks::UNDEFINED 112892785000                       # Cumulative time (in ticks) in various power states
system.tol2bus.reqLayer0.occupancy          326192000                       # Layer occupancy (ticks)
system.tol2bus.reqLayer0.utilization              0.3                       # Layer utilization (%)
system.tol2bus.respLayer0.occupancy           2310999                       # Layer occupancy (ticks)
system.tol2bus.respLayer0.utilization             0.0                       # Layer utilization (%)
system.tol2bus.respLayer1.occupancy         271105995                       # Layer occupancy (ticks)
system.tol2bus.respLayer1.utilization             0.2                       # Layer utilization (%)
system.voltage_domain.voltage                       1                       # Voltage in Volts

---------- End Simulation Statistics   ----------
