
---------- Begin Simulation Statistics ----------
final_tick                               112079712000                       # Number of ticks from beginning of simulation (restored from checkpoints and never reset)
host_inst_rate                                 374705                       # Simulator instruction rate (inst/s)
host_mem_usage                                 661136                       # Number of bytes of host memory used
host_op_rate                                   410044                       # Simulator op (including micro ops) rate (op/s)
host_seconds                                   266.88                       # Real time elapsed on the host
host_tick_rate                              419968091                       # Simulator tick rate (ticks/s)
sim_freq                                 1000000000000                       # Frequency of simulated ticks
sim_insts                                   100000001                       # Number of instructions simulated
sim_ops                                     109431277                       # Number of ops (including micro ops) simulated
sim_seconds                                  0.112080                       # Number of seconds simulated
sim_ticks                                112079712000                       # Number of ticks simulated
system.cpu.committedInsts                   100000001                       # Number of instructions committed
system.cpu.committedOps                     109431277                       # Number of ops (including micro ops) committed
system.cpu.cpi                               1.120797                       # CPI: cycles per instruction
system.cpu.discardedOps                        376498                       # Number of ops (including micro ops) which were discarded before commit
system.cpu.idleCycles                         3221623                       # Total number of cycles that the object has spent stopped
system.cpu.ipc                               0.892222                       # IPC: instructions per cycle
system.cpu.numCycles                        112079712                       # number of cpu cycles simulated
system.cpu.numFetchSuspends                         0                       # Number of times Execute suspended instruction fetching
system.cpu.numWorkItemsCompleted                    0                       # number of work items this cpu completed
system.cpu.numWorkItemsStarted                      0                       # number of work items this cpu started
system.cpu.op_class_0::No_OpClass                   0      0.00%      0.00% # Class of committed instruction
system.cpu.op_class_0::IntAlu                72955010     66.67%     66.67% # Class of committed instruction
system.cpu.op_class_0::IntMult                 568364      0.52%     67.19% # Class of committed instruction
system.cpu.op_class_0::IntDiv                       0      0.00%     67.19% # Class of committed instruction
system.cpu.op_class_0::FloatAdd                     0      0.00%     67.19% # Class of committed instruction
system.cpu.op_class_0::FloatCmp                     0      0.00%     67.19% # Class of committed instruction
system.cpu.op_class_0::FloatCvt                     0      0.00%     67.19% # Class of committed instruction
system.cpu.op_class_0::FloatMult                    0      0.00%     67.19% # Class of committed instruction
system.cpu.op_class_0::FloatMultAcc                 0      0.00%     67.19% # Class of committed instruction
system.cpu.op_class_0::FloatDiv                     0      0.00%     67.19% # Class of committed instruction
system.cpu.op_class_0::FloatMisc                    0      0.00%     67.19% # Class of committed instruction
system.cpu.op_class_0::FloatSqrt                    0      0.00%     67.19% # Class of committed instruction
system.cpu.op_class_0::SimdAdd                 241336      0.22%     67.41% # Class of committed instruction
system.cpu.op_class_0::SimdAddAcc                   0      0.00%     67.41% # Class of committed instruction
system.cpu.op_class_0::SimdAlu                 154628      0.14%     67.55% # Class of committed instruction
system.cpu.op_class_0::SimdCmp                 120668      0.11%     67.66% # Class of committed instruction
system.cpu.op_class_0::SimdCvt                      0      0.00%     67.66% # Class of committed instruction
system.cpu.op_class_0::SimdMisc                 44543      0.04%     67.70% # Class of committed instruction
system.cpu.op_class_0::SimdMult                     0      0.00%     67.70% # Class of committed instruction
system.cpu.op_class_0::SimdMultAcc                  0      0.00%     67.70% # Class of committed instruction
system.cpu.op_class_0::SimdShift                    0      0.00%     67.70% # Class of committed instruction
system.cpu.op_class_0::SimdShiftAcc                 0      0.00%     67.70% # Class of committed instruction
system.cpu.op_class_0::SimdDiv                      0      0.00%     67.70% # Class of committed instruction
system.cpu.op_class_0::SimdSqrt                     0      0.00%     67.70% # Class of committed instruction
system.cpu.op_class_0::SimdFloatAdd                 0      0.00%     67.70% # Class of committed instruction
system.cpu.op_class_0::SimdFloatAlu                 0      0.00%     67.70% # Class of committed instruction
system.cpu.op_class_0::SimdFloatCmp                 0      0.00%     67.70% # Class of committed instruction
system.cpu.op_class_0::SimdFloatCvt                 0      0.00%     67.70% # Class of committed instruction
system.cpu.op_class_0::SimdFloatDiv                 0      0.00%     67.70% # Class of committed instruction
system.cpu.op_class_0::SimdFloatMisc           166417      0.15%     67.85% # Class of committed instruction
system.cpu.op_class_0::SimdFloatMult                0      0.00%     67.85% # Class of committed instruction
system.cpu.op_class_0::SimdFloatMultAcc             0      0.00%     67.85% # Class of committed instruction
system.cpu.op_class_0::SimdFloatSqrt                0      0.00%     67.85% # Class of committed instruction
system.cpu.op_class_0::SimdReduceAdd                0      0.00%     67.85% # Class of committed instruction
system.cpu.op_class_0::SimdReduceAlu                0      0.00%     67.85% # Class of committed instruction
system.cpu.op_class_0::SimdReduceCmp                0      0.00%     67.85% # Class of committed instruction
system.cpu.op_class_0::SimdFloatReduceAdd            0      0.00%     67.85% # Class of committed instruction
system.cpu.op_class_0::SimdFloatReduceCmp            0      0.00%     67.85% # Class of committed instruction
system.cpu.op_class_0::SimdAes                      0      0.00%     67.85% # Class of committed instruction
system.cpu.op_class_0::SimdAesMix                   0      0.00%     67.85% # Class of committed instruction
system.cpu.op_class_0::SimdSha1Hash                 0      0.00%     67.85% # Class of committed instruction
system.cpu.op_class_0::SimdSha1Hash2                0      0.00%     67.85% # Class of committed instruction
system.cpu.op_class_0::SimdSha256Hash               0      0.00%     67.85% # Class of committed instruction
system.cpu.op_class_0::SimdSha256Hash2              0      0.00%     67.85% # Class of committed instruction
system.cpu.op_class_0::SimdShaSigma2                0      0.00%     67.85% # Class of committed instruction
system.cpu.op_class_0::SimdShaSigma3                0      0.00%     67.85% # Class of committed instruction
system.cpu.op_class_0::SimdPredAlu                  0      0.00%     67.85% # Class of committed instruction
system.cpu.op_class_0::MemRead               20645992     18.87%     86.72% # Class of committed instruction
system.cpu.op_class_0::MemWrite              14534319     13.28%    100.00% # Class of committed instruction
system.cpu.op_class_0::FloatMemRead                 0      0.00%    100.00% # Class of committed instruction
system.cpu.op_class_0::FloatMemWrite                0      0.00%    100.00% # Class of committed instruction
system.cpu.op_class_0::IprAccess                    0      0.00%    100.00% # Class of committed instruction
system.cpu.op_class_0::InstPrefetch                 0      0.00%    100.00% # Class of committed instruction
system.cpu.op_class_0::total                109431277                       # Class of committed instruction
system.cpu.tickCycles                       108858089                       # Number of cycles that the object actually ticked
system.cpu.workload.numSyscalls                    87                       # Number of system calls
system.membus.snoop_filter.hit_multi_requests            0                       # Number of requests hitting in the snoop filter with multiple (>1) holders of the requested data.
system.membus.snoop_filter.hit_multi_snoops            0                       # Number of snoops hitting in the snoop filter with multiple (>1) holders of the requested data.
system.membus.snoop_filter.hit_single_requests        26051                       # Number of requests hitting in the snoop filter with a single holder of the requested data.
system.membus.snoop_filter.hit_single_snoops            0                       # Number of snoops hitting in the snoop filter with a single holder of the requested data.
system.membus.snoop_filter.tot_requests         69026                       # Total number of requests made to the snoop filter.
system.membus.snoop_filter.tot_snoops               0                       # Total number of snoops made to the snoop filter.
system.tol2bus.snoop_filter.hit_multi_requests           25                       # Number of requests hitting in the snoop filter with multiple (>1) holders of the requested data.
system.tol2bus.snoop_filter.hit_multi_snoops            4                       # Number of snoops hitting in the snoop filter with multiple (>1) holders of the requested data.
system.tol2bus.snoop_filter.hit_single_requests        53021                       # Number of requests hitting in the snoop filter with a single holder of the requested data.
system.tol2bus.snoop_filter.hit_single_snoops          557                       # Number of snoops hitting in the snoop filter with a single holder of the requested data.
system.tol2bus.snoop_filter.tot_requests       107580                       # Total number of requests made to the snoop filter.
system.tol2bus.snoop_filter.tot_snoops            561                       # Total number of snoops made to the snoop filter.
system.clk_domain.clock                          1000                       # Clock period in ticks
system.cpu.branchPred.lookups                20360283                       # Number of BP lookups
system.cpu.branchPred.condPredicted          16297503                       # Number of conditional branches predicted
system.cpu.branchPred.condIncorrect             53388                       # Number of conditional branches incorrect
system.cpu.branchPred.BTBLookups              8737491                       # Number of BTB lookups
system.cpu.branchPred.BTBHits                 8736098                       # Number of BTB hits
system.cpu.branchPred.BTBHitPct             99.984057                       # BTB Hit Percentage
system.cpu.branchPred.RASUsed                 1050582                       # Number of times the RAS was used to get a target.
system.cpu.branchPred.RASIncorrect                325                       # Number of incorrect RAS predictions.
system.cpu.branchPred.indirectLookups          434004                       # Number of indirect predictor lookups.
system.cpu.branchPred.indirectHits             300030                       # Number of indirect target hits.
system.cpu.branchPred.indirectMisses           133974                       # Number of indirect misses.
system.cpu.branchPred.indirectMispredicted         1037                       # Number of mispredicted indirect branches.
system.cpu.dcache.demand_hits::.cpu.data     35612576                       # number of demand (read+write) hits
system.cpu.dcache.demand_hits::total         35612576                       # number of demand (read+write) hits
system.cpu.dcache.overall_hits::.cpu.data     35615895                       # number of overall hits
system.cpu.dcache.overall_hits::total        35615895                       # number of overall hits
system.cpu.dcache.demand_misses::.cpu.data        73569                       # number of demand (read+write) misses
system.cpu.dcache.demand_misses::total          73569                       # number of demand (read+write) misses
system.cpu.dcache.overall_misses::.cpu.data        73611                       # number of overall misses
system.cpu.dcache.overall_misses::total         73611                       # number of overall misses
system.cpu.dcache.demand_miss_latency::.cpu.data   6122584000                       # number of demand (read+write) miss cycles
system.cpu.dcache.demand_miss_latency::total   6122584000                       # number of demand (read+write) miss cycles
system.cpu.dcache.overall_miss_latency::.cpu.data   6122584000                       # number of overall miss cycles
system.cpu.dcache.overall_miss_latency::total   6122584000                       # number of overall miss cycles
system.cpu.dcache.demand_accesses::.cpu.data     35686145                       # number of demand (read+write) accesses
system.cpu.dcache.demand_accesses::total     35686145                       # number of demand (read+write) accesses
system.cpu.dcache.overall_accesses::.cpu.data     35689506                       # number of overall (read+write) accesses
system.cpu.dcache.overall_accesses::total     35689506                       # number of overall (read+write) accesses
system.cpu.dcache.demand_miss_rate::.cpu.data     0.002062                       # miss rate for demand accesses
system.cpu.dcache.demand_miss_rate::total     0.002062                       # miss rate for demand accesses
system.cpu.dcache.overall_miss_rate::.cpu.data     0.002063                       # miss rate for overall accesses
system.cpu.dcache.overall_miss_rate::total     0.002063                       # miss rate for overall accesses
system.cpu.dcache.demand_avg_miss_latency::.cpu.data 83222.335495                       # average overall miss latency
system.cpu.dcache.demand_avg_miss_latency::total 83222.335495                       # average overall miss latency
system.cpu.dcache.overall_avg_miss_latency::.cpu.data 83174.851585                       # average overall miss latency
system.cpu.dcache.overall_avg_miss_latency::total 83174.851585                       # average overall miss latency
system.cpu.dcache.blocked_cycles::no_mshrs            0                       # number of cycles access was blocked
system.cpu.dcache.blocked_cycles::no_targets            0                       # number of cycles access was blocked
system.cpu.dcache.blocked::no_mshrs                 0                       # number of cycles access was blocked
system.cpu.dcache.blocked::no_targets               0                       # number of cycles access was blocked
system.cpu.dcache.avg_blocked_cycles::no_mshrs          nan                       # average number of cycles each access was blocked
system.cpu.dcache.avg_blocked_cycles::no_targets          nan                       # average number of cycles each access was blocked
system.cpu.dcache.writebacks::.writebacks        49891                       # number of writebacks
system.cpu.dcache.writebacks::total             49891                       # number of writebacks
system.cpu.dcache.demand_mshr_hits::.cpu.data        19570                       # number of demand (read+write) MSHR hits
system.cpu.dcache.demand_mshr_hits::total        19570                       # number of demand (read+write) MSHR hits
system.cpu.dcache.overall_mshr_hits::.cpu.data        19570                       # number of overall MSHR hits
system.cpu.dcache.overall_mshr_hits::total        19570                       # number of overall MSHR hits
system.cpu.dcache.demand_mshr_misses::.cpu.data        53999                       # number of demand (read+write) MSHR misses
system.cpu.dcache.demand_mshr_misses::total        53999                       # number of demand (read+write) MSHR misses
system.cpu.dcache.overall_mshr_misses::.cpu.data        54036                       # number of overall MSHR misses
system.cpu.dcache.overall_mshr_misses::total        54036                       # number of overall MSHR misses
system.cpu.dcache.demand_mshr_miss_latency::.cpu.data   4755696000                       # number of demand (read+write) MSHR miss cycles
system.cpu.dcache.demand_mshr_miss_latency::total   4755696000                       # number of demand (read+write) MSHR miss cycles
system.cpu.dcache.overall_mshr_miss_latency::.cpu.data   4757751000                       # number of overall MSHR miss cycles
system.cpu.dcache.overall_mshr_miss_latency::total   4757751000                       # number of overall MSHR miss cycles
system.cpu.dcache.demand_mshr_miss_rate::.cpu.data     0.001513                       # mshr miss rate for demand accesses
system.cpu.dcache.demand_mshr_miss_rate::total     0.001513                       # mshr miss rate for demand accesses
system.cpu.dcache.overall_mshr_miss_rate::.cpu.data     0.001514                       # mshr miss rate for overall accesses
system.cpu.dcache.overall_mshr_miss_rate::total     0.001514                       # mshr miss rate for overall accesses
system.cpu.dcache.demand_avg_mshr_miss_latency::.cpu.data 88070.075372                       # average overall mshr miss latency
system.cpu.dcache.demand_avg_mshr_miss_latency::total 88070.075372                       # average overall mshr miss latency
system.cpu.dcache.overall_avg_mshr_miss_latency::.cpu.data 88047.801466                       # average overall mshr miss latency
system.cpu.dcache.overall_avg_mshr_miss_latency::total 88047.801466                       # average overall mshr miss latency
system.cpu.dcache.replacements                  53012                       # number of replacements
system.cpu.dcache.ReadReq_hits::.cpu.data     21413655                       # number of ReadReq hits
system.cpu.dcache.ReadReq_hits::total        21413655                       # number of ReadReq hits
system.cpu.dcache.ReadReq_misses::.cpu.data        18222                       # number of ReadReq misses
system.cpu.dcache.ReadReq_misses::total         18222                       # number of ReadReq misses
system.cpu.dcache.ReadReq_miss_latency::.cpu.data    818694000                       # number of ReadReq miss cycles
system.cpu.dcache.ReadReq_miss_latency::total    818694000                       # number of ReadReq miss cycles
system.cpu.dcache.ReadReq_accesses::.cpu.data     21431877                       # number of ReadReq accesses(hits+misses)
system.cpu.dcache.ReadReq_accesses::total     21431877                       # number of ReadReq accesses(hits+misses)
system.cpu.dcache.ReadReq_miss_rate::.cpu.data     0.000850                       # miss rate for ReadReq accesses
system.cpu.dcache.ReadReq_miss_rate::total     0.000850                       # miss rate for ReadReq accesses
system.cpu.dcache.ReadReq_avg_miss_latency::.cpu.data 44928.877181                       # average ReadReq miss latency
system.cpu.dcache.ReadReq_avg_miss_latency::total 44928.877181                       # average ReadReq miss latency
system.cpu.dcache.ReadReq_mshr_hits::.cpu.data         3043                       # number of ReadReq MSHR hits
system.cpu.dcache.ReadReq_mshr_hits::total         3043                       # number of ReadReq MSHR hits
system.cpu.dcache.ReadReq_mshr_misses::.cpu.data        15179                       # number of ReadReq MSHR misses
system.cpu.dcache.ReadReq_mshr_misses::total        15179                       # number of ReadReq MSHR misses
system.cpu.dcache.ReadReq_mshr_miss_latency::.cpu.data    693456000                       # number of ReadReq MSHR miss cycles
system.cpu.dcache.ReadReq_mshr_miss_latency::total    693456000                       # number of ReadReq MSHR miss cycles
system.cpu.dcache.ReadReq_mshr_miss_rate::.cpu.data     0.000708                       # mshr miss rate for ReadReq accesses
system.cpu.dcache.ReadReq_mshr_miss_rate::total     0.000708                       # mshr miss rate for ReadReq accesses
system.cpu.dcache.ReadReq_avg_mshr_miss_latency::.cpu.data 45685.223005                       # average ReadReq mshr miss latency
system.cpu.dcache.ReadReq_avg_mshr_miss_latency::total 45685.223005                       # average ReadReq mshr miss latency
system.cpu.dcache.WriteReq_hits::.cpu.data     14198921                       # number of WriteReq hits
system.cpu.dcache.WriteReq_hits::total       14198921                       # number of WriteReq hits
system.cpu.dcache.WriteReq_misses::.cpu.data        55347                       # number of WriteReq misses
system.cpu.dcache.WriteReq_misses::total        55347                       # number of WriteReq misses
system.cpu.dcache.WriteReq_miss_latency::.cpu.data   5303890000                       # number of WriteReq miss cycles
system.cpu.dcache.WriteReq_miss_latency::total   5303890000                       # number of WriteReq miss cycles
system.cpu.dcache.WriteReq_accesses::.cpu.data     14254268                       # number of WriteReq accesses(hits+misses)
system.cpu.dcache.WriteReq_accesses::total     14254268                       # number of WriteReq accesses(hits+misses)
system.cpu.dcache.WriteReq_miss_rate::.cpu.data     0.003883                       # miss rate for WriteReq accesses
system.cpu.dcache.WriteReq_miss_rate::total     0.003883                       # miss rate for WriteReq accesses
system.cpu.dcache.WriteReq_avg_miss_latency::.cpu.data 95829.764938                       # average WriteReq miss latency
system.cpu.dcache.WriteReq_avg_miss_latency::total 95829.764938                       # average WriteReq miss latency
system.cpu.dcache.WriteReq_mshr_hits::.cpu.data        16527                       # number of WriteReq MSHR hits
system.cpu.dcache.WriteReq_mshr_hits::total        16527                       # number of WriteReq MSHR hits
system.cpu.dcache.WriteReq_mshr_misses::.cpu.data        38820                       # number of WriteReq MSHR misses
system.cpu.dcache.WriteReq_mshr_misses::total        38820                       # number of WriteReq MSHR misses
system.cpu.dcache.WriteReq_mshr_miss_latency::.cpu.data   4062240000                       # number of WriteReq MSHR miss cycles
system.cpu.dcache.WriteReq_mshr_miss_latency::total   4062240000                       # number of WriteReq MSHR miss cycles
system.cpu.dcache.WriteReq_mshr_miss_rate::.cpu.data     0.002723                       # mshr miss rate for WriteReq accesses
system.cpu.dcache.WriteReq_mshr_miss_rate::total     0.002723                       # mshr miss rate for WriteReq accesses
system.cpu.dcache.WriteReq_avg_mshr_miss_latency::.cpu.data 104642.967543                       # average WriteReq mshr miss latency
system.cpu.dcache.WriteReq_avg_mshr_miss_latency::total 104642.967543                       # average WriteReq mshr miss latency
system.cpu.dcache.SoftPFReq_hits::.cpu.data         3319                       # number of SoftPFReq hits
system.cpu.dcache.SoftPFReq_hits::total          3319                       # number of SoftPFReq hits
system.cpu.dcache.SoftPFReq_misses::.cpu.data           42                       # number of SoftPFReq misses
system.cpu.dcache.SoftPFReq_misses::total           42                       # number of SoftPFReq misses
system.cpu.dcache.SoftPFReq_accesses::.cpu.data         3361                       # number of SoftPFReq accesses(hits+misses)
system.cpu.dcache.SoftPFReq_accesses::total         3361                       # number of SoftPFReq accesses(hits+misses)
system.cpu.dcache.SoftPFReq_miss_rate::.cpu.data     0.012496                       # miss rate for SoftPFReq accesses
system.cpu.dcache.SoftPFReq_miss_rate::total     0.012496                       # miss rate for SoftPFReq accesses
system.cpu.dcache.SoftPFReq_mshr_misses::.cpu.data           37                       # number of SoftPFReq MSHR misses
system.cpu.dcache.SoftPFReq_mshr_misses::total           37                       # number of SoftPFReq MSHR misses
system.cpu.dcache.SoftPFReq_mshr_miss_latency::.cpu.data      2055000                       # number of SoftPFReq MSHR miss cycles
system.cpu.dcache.SoftPFReq_mshr_miss_latency::total      2055000                       # number of SoftPFReq MSHR miss cycles
system.cpu.dcache.SoftPFReq_mshr_miss_rate::.cpu.data     0.011009                       # mshr miss rate for SoftPFReq accesses
system.cpu.dcache.SoftPFReq_mshr_miss_rate::total     0.011009                       # mshr miss rate for SoftPFReq accesses
system.cpu.dcache.SoftPFReq_avg_mshr_miss_latency::.cpu.data 55540.540541                       # average SoftPFReq mshr miss latency
system.cpu.dcache.SoftPFReq_avg_mshr_miss_latency::total 55540.540541                       # average SoftPFReq mshr miss latency
system.cpu.dcache.LoadLockedReq_hits::.cpu.data        89080                       # number of LoadLockedReq hits
system.cpu.dcache.LoadLockedReq_hits::total        89080                       # number of LoadLockedReq hits
system.cpu.dcache.LoadLockedReq_accesses::.cpu.data        89080                       # number of LoadLockedReq accesses(hits+misses)
system.cpu.dcache.LoadLockedReq_accesses::total        89080                       # number of LoadLockedReq accesses(hits+misses)
system.cpu.dcache.StoreCondReq_hits::.cpu.data        89080                       # number of StoreCondReq hits
system.cpu.dcache.StoreCondReq_hits::total        89080                       # number of StoreCondReq hits
system.cpu.dcache.StoreCondReq_accesses::.cpu.data        89080                       # number of StoreCondReq accesses(hits+misses)
system.cpu.dcache.StoreCondReq_accesses::total        89080                       # number of StoreCondReq accesses(hits+misses)
system.cpu.dcache.power_state.pwrStateResidencyTicks::UNDEFINED 112079712000                       # Cumulative time (in ticks) in various power states
system.cpu.dcache.tags.tagsinuse          1020.876472                       # Cycle average of tags in use
system.cpu.dcache.tags.total_refs            35848091                       # Total number of references to valid blocks.
system.cpu.dcache.tags.sampled_refs             54036                       # Sample count of references to valid blocks.
system.cpu.dcache.tags.avg_refs            663.411263                       # Average number of references to valid blocks.
system.cpu.dcache.tags.warmup_cycle            223000                       # Cycle when the warmup percentage was hit.
system.cpu.dcache.tags.occ_blocks::.cpu.data  1020.876472                       # Average occupied blocks per requestor
system.cpu.dcache.tags.occ_percent::.cpu.data     0.996950                       # Average percentage of cache occupancy
system.cpu.dcache.tags.occ_percent::total     0.996950                       # Average percentage of cache occupancy
system.cpu.dcache.tags.occ_task_id_blocks::1024         1024                       # Occupied blocks per task id
system.cpu.dcache.tags.age_task_id_blocks_1024::0            1                       # Occupied blocks per task id
system.cpu.dcache.tags.age_task_id_blocks_1024::1           22                       # Occupied blocks per task id
system.cpu.dcache.tags.age_task_id_blocks_1024::2          271                       # Occupied blocks per task id
system.cpu.dcache.tags.age_task_id_blocks_1024::3          676                       # Occupied blocks per task id
system.cpu.dcache.tags.age_task_id_blocks_1024::4           54                       # Occupied blocks per task id
system.cpu.dcache.tags.occ_task_id_percent::1024            1                       # Percentage of cache occupancy per task id
system.cpu.dcache.tags.tag_accesses          71789368                       # Number of tag accesses
system.cpu.dcache.tags.data_accesses         71789368                       # Number of data accesses
system.cpu.dcache.tags.power_state.pwrStateResidencyTicks::UNDEFINED 112079712000                       # Cumulative time (in ticks) in various power states
system.cpu.dtb.instHits                             0                       # ITB inst hits
system.cpu.dtb.instMisses                           0                       # ITB inst misses
system.cpu.dtb.readHits                             0                       # DTB read hits
system.cpu.dtb.readMisses                           0                       # DTB read misses
system.cpu.dtb.writeHits                            0                       # DTB write hits
system.cpu.dtb.writeMisses                          0                       # DTB write misses
system.cpu.dtb.inserts                              0                       # Number of times an entry is inserted into the TLB
system.cpu.dtb.flushTlb                             0                       # Number of times complete TLB was flushed
system.cpu.dtb.flushTlbMva                          0                       # Number of times TLB was flushed by MVA
system.cpu.dtb.flushTlbMvaAsid                      0                       # Number of times TLB was flushed by MVA & ASID
system.cpu.dtb.flushTlbAsid                         0                       # Number of times TLB was flushed by ASID
system.cpu.dtb.flushedEntries                       0                       # Number of entries that have been flushed from TLB
system.cpu.dtb.alignFaults                          0                       # Number of TLB faults due to alignment restrictions
system.cpu.dtb.prefetchFaults                       0                       # Number of TLB faults due to prefetch
system.cpu.dtb.domainFaults                         0                       # Number of TLB faults due to domain restrictions
system.cpu.dtb.permsFaults                          0                       # Number of TLB faults due to permissions restrictions
system.cpu.dtb.readAccesses                         0                       # DTB read accesses
system.cpu.dtb.writeAccesses                        0                       # DTB write accesses
system.cpu.dtb.instAccesses                         0                       # ITB inst accesses
system.cpu.dtb.hits                                 0                       # Total TLB (inst and data) hits
system.cpu.dtb.misses                               0                       # Total TLB (inst and data) misses
system.cpu.dtb.accesses                             0                       # Total TLB (inst and data) accesses
system.cpu.dtb.stage2_mmu.stage2_tlb.instHits            0                       # ITB inst hits
system.cpu.dtb.stage2_mmu.stage2_tlb.instMisses            0                       # ITB inst misses
system.cpu.dtb.stage2_mmu.stage2_tlb.readHits            0                       # DTB read hits
system.cpu.dtb.stage2_mmu.stage2_tlb.readMisses            0                       # DTB read misses
system.cpu.dtb.stage2_mmu.stage2_tlb.writeHits            0                       # DTB write hits
system.cpu.dtb.stage2_mmu.stage2_tlb.writeMisses            0                       # DTB write misses
system.cpu.dtb.stage2_mmu.stage2_tlb.inserts            0                       # Number of times an entry is inserted into the TLB
system.cpu.dtb.stage2_mmu.stage2_tlb.flushTlb            0                       # Number of times complete TLB was flushed
system.cpu.dtb.stage2_mmu.stage2_tlb.flushTlbMva            0                       # Number of times TLB was flushed by MVA
system.cpu.dtb.stage2_mmu.stage2_tlb.flushTlbMvaAsid            0                       # Number of times TLB was flushed by MVA & ASID
system.cpu.dtb.stage2_mmu.stage2_tlb.flushTlbAsid            0                       # Number of times TLB was flushed by ASID
system.cpu.dtb.stage2_mmu.stage2_tlb.flushedEntries            0                       # Number of entries that have been flushed from TLB
system.cpu.dtb.stage2_mmu.stage2_tlb.alignFaults            0                       # Number of TLB faults due to alignment restrictions
system.cpu.dtb.stage2_mmu.stage2_tlb.prefetchFaults            0                       # Number of TLB faults due to prefetch
system.cpu.dtb.stage2_mmu.stage2_tlb.domainFaults            0                       # Number of TLB faults due to domain restrictions
system.cpu.dtb.stage2_mmu.stage2_tlb.permsFaults            0                       # Number of TLB faults due to permissions restrictions
system.cpu.dtb.stage2_mmu.stage2_tlb.readAccesses            0                       # DTB read accesses
system.cpu.dtb.stage2_mmu.stage2_tlb.writeAccesses            0                       # DTB write accesses
system.cpu.dtb.stage2_mmu.stage2_tlb.instAccesses            0                       # ITB inst accesses
system.cpu.dtb.stage2_mmu.stage2_tlb.hits            0                       # Total TLB (inst and data) hits
system.cpu.dtb.stage2_mmu.stage2_tlb.misses            0                       # Total TLB (inst and data) misses
system.cpu.dtb.stage2_mmu.stage2_tlb.accesses            0                       # Total TLB (inst and data) accesses
system.cpu.dtb.stage2_mmu.stage2_tlb.walker.walks            0                       # Table walker walks requested
system.cpu.dtb.stage2_mmu.stage2_tlb.walker.requestOrigin_Requested::Data            0                       # Table walker requests started/completed, data/inst
system.cpu.dtb.stage2_mmu.stage2_tlb.walker.requestOrigin_Requested::Inst            0                       # Table walker requests started/completed, data/inst
system.cpu.dtb.stage2_mmu.stage2_tlb.walker.requestOrigin_Requested::total            0                       # Table walker requests started/completed, data/inst
system.cpu.dtb.stage2_mmu.stage2_tlb.walker.requestOrigin_Completed::Data            0                       # Table walker requests started/completed, data/inst
system.cpu.dtb.stage2_mmu.stage2_tlb.walker.requestOrigin_Completed::Inst            0                       # Table walker requests started/completed, data/inst
system.cpu.dtb.stage2_mmu.stage2_tlb.walker.requestOrigin_Completed::total            0                       # Table walker requests started/completed, data/inst
system.cpu.dtb.stage2_mmu.stage2_tlb.walker.requestOrigin::total            0                       # Table walker requests started/completed, data/inst
system.cpu.dtb.stage2_mmu.stage2_tlb.walker.power_state.pwrStateResidencyTicks::UNDEFINED 112079712000                       # Cumulative time (in ticks) in various power states
system.cpu.dtb.walker.walks                         0                       # Table walker walks requested
system.cpu.dtb.walker.requestOrigin_Requested::Data            0                       # Table walker requests started/completed, data/inst
system.cpu.dtb.walker.requestOrigin_Requested::Inst            0                       # Table walker requests started/completed, data/inst
system.cpu.dtb.walker.requestOrigin_Requested::total            0                       # Table walker requests started/completed, data/inst
system.cpu.dtb.walker.requestOrigin_Completed::Data            0                       # Table walker requests started/completed, data/inst
system.cpu.dtb.walker.requestOrigin_Completed::Inst            0                       # Table walker requests started/completed, data/inst
system.cpu.dtb.walker.requestOrigin_Completed::total            0                       # Table walker requests started/completed, data/inst
system.cpu.dtb.walker.requestOrigin::total            0                       # Table walker requests started/completed, data/inst
system.cpu.dtb.walker.power_state.pwrStateResidencyTicks::UNDEFINED 112079712000                       # Cumulative time (in ticks) in various power states
system.cpu.fetch2.intInstructions            49238775                       # Number of integer instructions successfully decoded
system.cpu.fetch2.fpInstructions                    0                       # Number of floating point instructions successfully decoded
system.cpu.fetch2.vecInstructions                   0                       # Number of SIMD instructions successfully decoded
system.cpu.fetch2.loadInstructions           17106569                       # Number of memory load instructions successfully decoded
system.cpu.fetch2.storeInstructions           9764039                       # Number of memory store instructions successfully decoded
system.cpu.fetch2.amoInstructions                   0                       # Number of memory atomic instructions successfully decoded
system.cpu.icache.demand_hits::.cpu.inst     28361722                       # number of demand (read+write) hits
system.cpu.icache.demand_hits::total         28361722                       # number of demand (read+write) hits
system.cpu.icache.overall_hits::.cpu.inst     28361722                       # number of overall hits
system.cpu.icache.overall_hits::total        28361722                       # number of overall hits
system.cpu.icache.demand_misses::.cpu.inst          527                       # number of demand (read+write) misses
system.cpu.icache.demand_misses::total            527                       # number of demand (read+write) misses
system.cpu.icache.overall_misses::.cpu.inst          527                       # number of overall misses
system.cpu.icache.overall_misses::total           527                       # number of overall misses
system.cpu.icache.demand_miss_latency::.cpu.inst     53385000                       # number of demand (read+write) miss cycles
system.cpu.icache.demand_miss_latency::total     53385000                       # number of demand (read+write) miss cycles
system.cpu.icache.overall_miss_latency::.cpu.inst     53385000                       # number of overall miss cycles
system.cpu.icache.overall_miss_latency::total     53385000                       # number of overall miss cycles
system.cpu.icache.demand_accesses::.cpu.inst     28362249                       # number of demand (read+write) accesses
system.cpu.icache.demand_accesses::total     28362249                       # number of demand (read+write) accesses
system.cpu.icache.overall_accesses::.cpu.inst     28362249                       # number of overall (read+write) accesses
system.cpu.icache.overall_accesses::total     28362249                       # number of overall (read+write) accesses
system.cpu.icache.demand_miss_rate::.cpu.inst     0.000019                       # miss rate for demand accesses
system.cpu.icache.demand_miss_rate::total     0.000019                       # miss rate for demand accesses
system.cpu.icache.overall_miss_rate::.cpu.inst     0.000019                       # miss rate for overall accesses
system.cpu.icache.overall_miss_rate::total     0.000019                       # miss rate for overall accesses
system.cpu.icache.demand_avg_miss_latency::.cpu.inst 101299.810247                       # average overall miss latency
system.cpu.icache.demand_avg_miss_latency::total 101299.810247                       # average overall miss latency
system.cpu.icache.overall_avg_miss_latency::.cpu.inst 101299.810247                       # average overall miss latency
system.cpu.icache.overall_avg_miss_latency::total 101299.810247                       # average overall miss latency
system.cpu.icache.blocked_cycles::no_mshrs            0                       # number of cycles access was blocked
system.cpu.icache.blocked_cycles::no_targets            0                       # number of cycles access was blocked
system.cpu.icache.blocked::no_mshrs                 0                       # number of cycles access was blocked
system.cpu.icache.blocked::no_targets               0                       # number of cycles access was blocked
system.cpu.icache.avg_blocked_cycles::no_mshrs          nan                       # average number of cycles each access was blocked
system.cpu.icache.avg_blocked_cycles::no_targets          nan                       # average number of cycles each access was blocked
system.cpu.icache.writebacks::.writebacks            5                       # number of writebacks
system.cpu.icache.writebacks::total                 5                       # number of writebacks
system.cpu.icache.demand_mshr_misses::.cpu.inst          527                       # number of demand (read+write) MSHR misses
system.cpu.icache.demand_mshr_misses::total          527                       # number of demand (read+write) MSHR misses
system.cpu.icache.overall_mshr_misses::.cpu.inst          527                       # number of overall MSHR misses
system.cpu.icache.overall_mshr_misses::total          527                       # number of overall MSHR misses
system.cpu.icache.demand_mshr_miss_latency::.cpu.inst     52331000                       # number of demand (read+write) MSHR miss cycles
system.cpu.icache.demand_mshr_miss_latency::total     52331000                       # number of demand (read+write) MSHR miss cycles
system.cpu.icache.overall_mshr_miss_latency::.cpu.inst     52331000                       # number of overall MSHR miss cycles
system.cpu.icache.overall_mshr_miss_latency::total     52331000                       # number of overall MSHR miss cycles
system.cpu.icache.demand_mshr_miss_rate::.cpu.inst     0.000019                       # mshr miss rate for demand accesses
system.cpu.icache.demand_mshr_miss_rate::total     0.000019                       # mshr miss rate for demand accesses
system.cpu.icache.overall_mshr_miss_rate::.cpu.inst     0.000019                       # mshr miss rate for overall accesses
system.cpu.icache.overall_mshr_miss_rate::total     0.000019                       # mshr miss rate for overall accesses
system.cpu.icache.demand_avg_mshr_miss_latency::.cpu.inst 99299.810247                       # average overall mshr miss latency
system.cpu.icache.demand_avg_mshr_miss_latency::total 99299.810247                       # average overall mshr miss latency
system.cpu.icache.overall_avg_mshr_miss_latency::.cpu.inst 99299.810247                       # average overall mshr miss latency
system.cpu.icache.overall_avg_mshr_miss_latency::total 99299.810247                       # average overall mshr miss latency
system.cpu.icache.replacements                      5                       # number of replacements
system.cpu.icache.ReadReq_hits::.cpu.inst     28361722                       # number of ReadReq hits
system.cpu.icache.ReadReq_hits::total        28361722                       # number of ReadReq hits
system.cpu.icache.ReadReq_misses::.cpu.inst          527                       # number of ReadReq misses
system.cpu.icache.ReadReq_misses::total           527                       # number of ReadReq misses
system.cpu.icache.ReadReq_miss_latency::.cpu.inst     53385000                       # number of ReadReq miss cycles
system.cpu.icache.ReadReq_miss_latency::total     53385000                       # number of ReadReq miss cycles
system.cpu.icache.ReadReq_accesses::.cpu.inst     28362249                       # number of ReadReq accesses(hits+misses)
system.cpu.icache.ReadReq_accesses::total     28362249                       # number of ReadReq accesses(hits+misses)
system.cpu.icache.ReadReq_miss_rate::.cpu.inst     0.000019                       # miss rate for ReadReq accesses
system.cpu.icache.ReadReq_miss_rate::total     0.000019                       # miss rate for ReadReq accesses
system.cpu.icache.ReadReq_avg_miss_latency::.cpu.inst 101299.810247                       # average ReadReq miss latency
system.cpu.icache.ReadReq_avg_miss_latency::total 101299.810247                       # average ReadReq miss latency
system.cpu.icache.ReadReq_mshr_misses::.cpu.inst          527                       # number of ReadReq MSHR misses
system.cpu.icache.ReadReq_mshr_misses::total          527                       # number of ReadReq MSHR misses
system.cpu.icache.ReadReq_mshr_miss_latency::.cpu.inst     52331000                       # number of ReadReq MSHR miss cycles
system.cpu.icache.ReadReq_mshr_miss_latency::total     52331000                       # number of ReadReq MSHR miss cycles
system.cpu.icache.ReadReq_mshr_miss_rate::.cpu.inst     0.000019                       # mshr miss rate for ReadReq accesses
system.cpu.icache.ReadReq_mshr_miss_rate::total     0.000019                       # mshr miss rate for ReadReq accesses
system.cpu.icache.ReadReq_avg_mshr_miss_latency::.cpu.inst 99299.810247                       # average ReadReq mshr miss latency
system.cpu.icache.ReadReq_avg_mshr_miss_latency::total 99299.810247                       # average ReadReq mshr miss latency
system.cpu.icache.power_state.pwrStateResidencyTicks::UNDEFINED 112079712000                       # Cumulative time (in ticks) in various power states
system.cpu.icache.tags.tagsinuse           520.884958                       # Cycle average of tags in use
system.cpu.icache.tags.total_refs            28362249                       # Total number of references to valid blocks.
system.cpu.icache.tags.sampled_refs               527                       # Sample count of references to valid blocks.
system.cpu.icache.tags.avg_refs          53818.309298                       # Average number of references to valid blocks.
system.cpu.icache.tags.warmup_cycle            108000                       # Cycle when the warmup percentage was hit.
system.cpu.icache.tags.occ_blocks::.cpu.inst   520.884958                       # Average occupied blocks per requestor
system.cpu.icache.tags.occ_percent::.cpu.inst     0.254338                       # Average percentage of cache occupancy
system.cpu.icache.tags.occ_percent::total     0.254338                       # Average percentage of cache occupancy
system.cpu.icache.tags.occ_task_id_blocks::1024          522                       # Occupied blocks per task id
system.cpu.icache.tags.age_task_id_blocks_1024::4          522                       # Occupied blocks per task id
system.cpu.icache.tags.occ_task_id_percent::1024     0.254883                       # Percentage of cache occupancy per task id
system.cpu.icache.tags.tag_accesses          56725025                       # Number of tag accesses
system.cpu.icache.tags.data_accesses         56725025                       # Number of data accesses
system.cpu.icache.tags.power_state.pwrStateResidencyTicks::UNDEFINED 112079712000                       # Cumulative time (in ticks) in various power states
system.cpu.itb.instHits                             0                       # ITB inst hits
system.cpu.itb.instMisses                           0                       # ITB inst misses
system.cpu.itb.readHits                             0                       # DTB read hits
system.cpu.itb.readMisses                           0                       # DTB read misses
system.cpu.itb.writeHits                            0                       # DTB write hits
system.cpu.itb.writeMisses                          0                       # DTB write misses
system.cpu.itb.inserts                              0                       # Number of times an entry is inserted into the TLB
system.cpu.itb.flushTlb                             0                       # Number of times complete TLB was flushed
system.cpu.itb.flushTlbMva                          0                       # Number of times TLB was flushed by MVA
system.cpu.itb.flushTlbMvaAsid                      0                       # Number of times TLB was flushed by MVA & ASID
system.cpu.itb.flushTlbAsid                         0                       # Number of times TLB was flushed by ASID
system.cpu.itb.flushedEntries                       0                       # Number of entries that have been flushed from TLB
system.cpu.itb.alignFaults                          0                       # Number of TLB faults due to alignment restrictions
system.cpu.itb.prefetchFaults                       0                       # Number of TLB faults due to prefetch
system.cpu.itb.domainFaults                         0                       # Number of TLB faults due to domain restrictions
system.cpu.itb.permsFaults                          0                       # Number of TLB faults due to permissions restrictions
system.cpu.itb.readAccesses                         0                       # DTB read accesses
system.cpu.itb.writeAccesses                        0                       # DTB write accesses
system.cpu.itb.instAccesses                         0                       # ITB inst accesses
system.cpu.itb.hits                                 0                       # Total TLB (inst and data) hits
system.cpu.itb.misses                               0                       # Total TLB (inst and data) misses
system.cpu.itb.accesses                             0                       # Total TLB (inst and data) accesses
system.cpu.itb.stage2_mmu.stage2_tlb.instHits            0                       # ITB inst hits
system.cpu.itb.stage2_mmu.stage2_tlb.instMisses            0                       # ITB inst misses
system.cpu.itb.stage2_mmu.stage2_tlb.readHits            0                       # DTB read hits
system.cpu.itb.stage2_mmu.stage2_tlb.readMisses            0                       # DTB read misses
system.cpu.itb.stage2_mmu.stage2_tlb.writeHits            0                       # DTB write hits
system.cpu.itb.stage2_mmu.stage2_tlb.writeMisses            0                       # DTB write misses
system.cpu.itb.stage2_mmu.stage2_tlb.inserts            0                       # Number of times an entry is inserted into the TLB
system.cpu.itb.stage2_mmu.stage2_tlb.flushTlb            0                       # Number of times complete TLB was flushed
system.cpu.itb.stage2_mmu.stage2_tlb.flushTlbMva            0                       # Number of times TLB was flushed by MVA
system.cpu.itb.stage2_mmu.stage2_tlb.flushTlbMvaAsid            0                       # Number of times TLB was flushed by MVA & ASID
system.cpu.itb.stage2_mmu.stage2_tlb.flushTlbAsid            0                       # Number of times TLB was flushed by ASID
system.cpu.itb.stage2_mmu.stage2_tlb.flushedEntries            0                       # Number of entries that have been flushed from TLB
system.cpu.itb.stage2_mmu.stage2_tlb.alignFaults            0                       # Number of TLB faults due to alignment restrictions
system.cpu.itb.stage2_mmu.stage2_tlb.prefetchFaults            0                       # Number of TLB faults due to prefetch
system.cpu.itb.stage2_mmu.stage2_tlb.domainFaults            0                       # Number of TLB faults due to domain restrictions
system.cpu.itb.stage2_mmu.stage2_tlb.permsFaults            0                       # Number of TLB faults due to permissions restrictions
system.cpu.itb.stage2_mmu.stage2_tlb.readAccesses            0                       # DTB read accesses
system.cpu.itb.stage2_mmu.stage2_tlb.writeAccesses            0                       # DTB write accesses
system.cpu.itb.stage2_mmu.stage2_tlb.instAccesses            0                       # ITB inst accesses
system.cpu.itb.stage2_mmu.stage2_tlb.hits            0                       # Total TLB (inst and data) hits
system.cpu.itb.stage2_mmu.stage2_tlb.misses            0                       # Total TLB (inst and data) misses
system.cpu.itb.stage2_mmu.stage2_tlb.accesses            0                       # Total TLB (inst and data) accesses
system.cpu.itb.stage2_mmu.stage2_tlb.walker.walks            0                       # Table walker walks requested
system.cpu.itb.stage2_mmu.stage2_tlb.walker.requestOrigin_Requested::Data            0                       # Table walker requests started/completed, data/inst
system.cpu.itb.stage2_mmu.stage2_tlb.walker.requestOrigin_Requested::Inst            0                       # Table walker requests started/completed, data/inst
system.cpu.itb.stage2_mmu.stage2_tlb.walker.requestOrigin_Requested::total            0                       # Table walker requests started/completed, data/inst
system.cpu.itb.stage2_mmu.stage2_tlb.walker.requestOrigin_Completed::Data            0                       # Table walker requests started/completed, data/inst
system.cpu.itb.stage2_mmu.stage2_tlb.walker.requestOrigin_Completed::Inst            0                       # Table walker requests started/completed, data/inst
system.cpu.itb.stage2_mmu.stage2_tlb.walker.requestOrigin_Completed::total            0                       # Table walker requests started/completed, data/inst
system.cpu.itb.stage2_mmu.stage2_tlb.walker.requestOrigin::total            0                       # Table walker requests started/completed, data/inst
system.cpu.itb.stage2_mmu.stage2_tlb.walker.power_state.pwrStateResidencyTicks::UNDEFINED 112079712000                       # Cumulative time (in ticks) in various power states
system.cpu.itb.walker.walks                         0                       # Table walker walks requested
system.cpu.itb.walker.requestOrigin_Requested::Data            0                       # Table walker requests started/completed, data/inst
system.cpu.itb.walker.requestOrigin_Requested::Inst            0                       # Table walker requests started/completed, data/inst
system.cpu.itb.walker.requestOrigin_Requested::total            0                       # Table walker requests started/completed, data/inst
system.cpu.itb.walker.requestOrigin_Completed::Data            0                       # Table walker requests started/completed, data/inst
system.cpu.itb.walker.requestOrigin_Completed::Inst            0                       # Table walker requests started/completed, data/inst
system.cpu.itb.walker.requestOrigin_Completed::total            0                       # Table walker requests started/completed, data/inst
system.cpu.itb.walker.requestOrigin::total            0                       # Table walker requests started/completed, data/inst
system.cpu.itb.walker.power_state.pwrStateResidencyTicks::UNDEFINED 112079712000                       # Cumulative time (in ticks) in various power states
system.cpu.power_state.pwrStateResidencyTicks::ON 112079712000                       # Cumulative time (in ticks) in various power states
system.cpu.thread_0.numInsts                100000001                       # Number of Instructions committed
system.cpu.thread_0.numOps                  109431277                       # Number of Ops committed
system.cpu.thread_0.numMemRefs                      0                       # Number of Memory References
system.cpu_clk_domain.clock                      1000                       # Clock period in ticks
system.cpu_voltage_domain.voltage                   1                       # Voltage in Volts
system.l2.demand_hits::.cpu.inst                    5                       # number of demand (read+write) hits
system.l2.demand_hits::.cpu.data                11573                       # number of demand (read+write) hits
system.l2.demand_hits::total                    11578                       # number of demand (read+write) hits
system.l2.overall_hits::.cpu.inst                   5                       # number of overall hits
system.l2.overall_hits::.cpu.data               11573                       # number of overall hits
system.l2.overall_hits::total                   11578                       # number of overall hits
system.l2.demand_misses::.cpu.inst                522                       # number of demand (read+write) misses
system.l2.demand_misses::.cpu.data              42463                       # number of demand (read+write) misses
system.l2.demand_misses::total                  42985                       # number of demand (read+write) misses
system.l2.overall_misses::.cpu.inst               522                       # number of overall misses
system.l2.overall_misses::.cpu.data             42463                       # number of overall misses
system.l2.overall_misses::total                 42985                       # number of overall misses
system.l2.demand_miss_latency::.cpu.inst     50634000                       # number of demand (read+write) miss cycles
system.l2.demand_miss_latency::.cpu.data   4352571000                       # number of demand (read+write) miss cycles
system.l2.demand_miss_latency::total       4403205000                       # number of demand (read+write) miss cycles
system.l2.overall_miss_latency::.cpu.inst     50634000                       # number of overall miss cycles
system.l2.overall_miss_latency::.cpu.data   4352571000                       # number of overall miss cycles
system.l2.overall_miss_latency::total      4403205000                       # number of overall miss cycles
system.l2.demand_accesses::.cpu.inst              527                       # number of demand (read+write) accesses
system.l2.demand_accesses::.cpu.data            54036                       # number of demand (read+write) accesses
system.l2.demand_accesses::total                54563                       # number of demand (read+write) accesses
system.l2.overall_accesses::.cpu.inst             527                       # number of overall (read+write) accesses
system.l2.overall_accesses::.cpu.data           54036                       # number of overall (read+write) accesses
system.l2.overall_accesses::total               54563                       # number of overall (read+write) accesses
system.l2.demand_miss_rate::.cpu.inst        0.990512                       # miss rate for demand accesses
system.l2.demand_miss_rate::.cpu.data        0.785828                       # miss rate for demand accesses
system.l2.demand_miss_rate::total            0.787805                       # miss rate for demand accesses
system.l2.overall_miss_rate::.cpu.inst       0.990512                       # miss rate for overall accesses
system.l2.overall_miss_rate::.cpu.data       0.785828                       # miss rate for overall accesses
system.l2.overall_miss_rate::total           0.787805                       # miss rate for overall accesses
system.l2.demand_avg_miss_latency::.cpu.inst        97000                       # average overall miss latency
system.l2.demand_avg_miss_latency::.cpu.data 102502.672915                       # average overall miss latency
system.l2.demand_avg_miss_latency::total 102435.849715                       # average overall miss latency
system.l2.overall_avg_miss_latency::.cpu.inst        97000                       # average overall miss latency
system.l2.overall_avg_miss_latency::.cpu.data 102502.672915                       # average overall miss latency
system.l2.overall_avg_miss_latency::total 102435.849715                       # average overall miss latency
system.l2.blocked_cycles::no_mshrs                  0                       # number of cycles access was blocked
system.l2.blocked_cycles::no_targets                0                       # number of cycles access was blocked
system.l2.blocked::no_mshrs                         0                       # number of cycles access was blocked
system.l2.blocked::no_targets                       0                       # number of cycles access was blocked
system.l2.avg_blocked_cycles::no_mshrs            nan                       # average number of cycles each access was blocked
system.l2.avg_blocked_cycles::no_targets          nan                       # average number of cycles each access was blocked
system.l2.writebacks::.writebacks               25974                       # number of writebacks
system.l2.writebacks::total                     25974                       # number of writebacks
system.l2.demand_mshr_hits::.cpu.inst               1                       # number of demand (read+write) MSHR hits
system.l2.demand_mshr_hits::.cpu.data               5                       # number of demand (read+write) MSHR hits
system.l2.demand_mshr_hits::total                   6                       # number of demand (read+write) MSHR hits
system.l2.overall_mshr_hits::.cpu.inst              1                       # number of overall MSHR hits
system.l2.overall_mshr_hits::.cpu.data              5                       # number of overall MSHR hits
system.l2.overall_mshr_hits::total                  6                       # number of overall MSHR hits
system.l2.demand_mshr_misses::.cpu.inst           521                       # number of demand (read+write) MSHR misses
system.l2.demand_mshr_misses::.cpu.data         42458                       # number of demand (read+write) MSHR misses
system.l2.demand_mshr_misses::total             42979                       # number of demand (read+write) MSHR misses
system.l2.overall_mshr_misses::.cpu.inst          521                       # number of overall MSHR misses
system.l2.overall_mshr_misses::.cpu.data        42458                       # number of overall MSHR misses
system.l2.overall_mshr_misses::total            42979                       # number of overall MSHR misses
system.l2.demand_mshr_miss_latency::.cpu.inst     40134000                       # number of demand (read+write) MSHR miss cycles
system.l2.demand_mshr_miss_latency::.cpu.data   3502801000                       # number of demand (read+write) MSHR miss cycles
system.l2.demand_mshr_miss_latency::total   3542935000                       # number of demand (read+write) MSHR miss cycles
system.l2.overall_mshr_miss_latency::.cpu.inst     40134000                       # number of overall MSHR miss cycles
system.l2.overall_mshr_miss_latency::.cpu.data   3502801000                       # number of overall MSHR miss cycles
system.l2.overall_mshr_miss_latency::total   3542935000                       # number of overall MSHR miss cycles
system.l2.demand_mshr_miss_rate::.cpu.inst     0.988615                       # mshr miss rate for demand accesses
system.l2.demand_mshr_miss_rate::.cpu.data     0.785735                       # mshr miss rate for demand accesses
system.l2.demand_mshr_miss_rate::total       0.787695                       # mshr miss rate for demand accesses
system.l2.overall_mshr_miss_rate::.cpu.inst     0.988615                       # mshr miss rate for overall accesses
system.l2.overall_mshr_miss_rate::.cpu.data     0.785735                       # mshr miss rate for overall accesses
system.l2.overall_mshr_miss_rate::total      0.787695                       # mshr miss rate for overall accesses
system.l2.demand_avg_mshr_miss_latency::.cpu.inst 77032.629559                       # average overall mshr miss latency
system.l2.demand_avg_mshr_miss_latency::.cpu.data 82500.376843                       # average overall mshr miss latency
system.l2.demand_avg_mshr_miss_latency::total 82434.095721                       # average overall mshr miss latency
system.l2.overall_avg_mshr_miss_latency::.cpu.inst 77032.629559                       # average overall mshr miss latency
system.l2.overall_avg_mshr_miss_latency::.cpu.data 82500.376843                       # average overall mshr miss latency
system.l2.overall_avg_mshr_miss_latency::total 82434.095721                       # average overall mshr miss latency
system.l2.replacements                          26602                       # number of replacements
system.l2.WritebackDirty_hits::.writebacks        49891                       # number of WritebackDirty hits
system.l2.WritebackDirty_hits::total            49891                       # number of WritebackDirty hits
system.l2.WritebackDirty_accesses::.writebacks        49891                       # number of WritebackDirty accesses(hits+misses)
system.l2.WritebackDirty_accesses::total        49891                       # number of WritebackDirty accesses(hits+misses)
system.l2.WritebackClean_hits::.writebacks            5                       # number of WritebackClean hits
system.l2.WritebackClean_hits::total                5                       # number of WritebackClean hits
system.l2.WritebackClean_accesses::.writebacks            5                       # number of WritebackClean accesses(hits+misses)
system.l2.WritebackClean_accesses::total            5                       # number of WritebackClean accesses(hits+misses)
system.l2.CleanEvict_mshr_misses::.writebacks            6                       # number of CleanEvict MSHR misses
system.l2.CleanEvict_mshr_misses::total             6                       # number of CleanEvict MSHR misses
system.l2.CleanEvict_mshr_miss_rate::.writebacks          inf                       # mshr miss rate for CleanEvict accesses
system.l2.CleanEvict_mshr_miss_rate::total          inf                       # mshr miss rate for CleanEvict accesses
system.l2.ReadExReq_hits::.cpu.data                10                       # number of ReadExReq hits
system.l2.ReadExReq_hits::total                    10                       # number of ReadExReq hits
system.l2.ReadExReq_misses::.cpu.data           38810                       # number of ReadExReq misses
system.l2.ReadExReq_misses::total               38810                       # number of ReadExReq misses
system.l2.ReadExReq_miss_latency::.cpu.data   3945568000                       # number of ReadExReq miss cycles
system.l2.ReadExReq_miss_latency::total    3945568000                       # number of ReadExReq miss cycles
system.l2.ReadExReq_accesses::.cpu.data         38820                       # number of ReadExReq accesses(hits+misses)
system.l2.ReadExReq_accesses::total             38820                       # number of ReadExReq accesses(hits+misses)
system.l2.ReadExReq_miss_rate::.cpu.data     0.999742                       # miss rate for ReadExReq accesses
system.l2.ReadExReq_miss_rate::total         0.999742                       # miss rate for ReadExReq accesses
system.l2.ReadExReq_avg_miss_latency::.cpu.data 101663.694924                       # average ReadExReq miss latency
system.l2.ReadExReq_avg_miss_latency::total 101663.694924                       # average ReadExReq miss latency
system.l2.ReadExReq_mshr_misses::.cpu.data        38810                       # number of ReadExReq MSHR misses
system.l2.ReadExReq_mshr_misses::total          38810                       # number of ReadExReq MSHR misses
system.l2.ReadExReq_mshr_miss_latency::.cpu.data   3169368000                       # number of ReadExReq MSHR miss cycles
system.l2.ReadExReq_mshr_miss_latency::total   3169368000                       # number of ReadExReq MSHR miss cycles
system.l2.ReadExReq_mshr_miss_rate::.cpu.data     0.999742                       # mshr miss rate for ReadExReq accesses
system.l2.ReadExReq_mshr_miss_rate::total     0.999742                       # mshr miss rate for ReadExReq accesses
system.l2.ReadExReq_avg_mshr_miss_latency::.cpu.data 81663.694924                       # average ReadExReq mshr miss latency
system.l2.ReadExReq_avg_mshr_miss_latency::total 81663.694924                       # average ReadExReq mshr miss latency
system.l2.ReadCleanReq_hits::.cpu.inst              5                       # number of ReadCleanReq hits
system.l2.ReadCleanReq_hits::total                  5                       # number of ReadCleanReq hits
system.l2.ReadCleanReq_misses::.cpu.inst          522                       # number of ReadCleanReq misses
system.l2.ReadCleanReq_misses::total              522                       # number of ReadCleanReq misses
system.l2.ReadCleanReq_miss_latency::.cpu.inst     50634000                       # number of ReadCleanReq miss cycles
system.l2.ReadCleanReq_miss_latency::total     50634000                       # number of ReadCleanReq miss cycles
system.l2.ReadCleanReq_accesses::.cpu.inst          527                       # number of ReadCleanReq accesses(hits+misses)
system.l2.ReadCleanReq_accesses::total            527                       # number of ReadCleanReq accesses(hits+misses)
system.l2.ReadCleanReq_miss_rate::.cpu.inst     0.990512                       # miss rate for ReadCleanReq accesses
system.l2.ReadCleanReq_miss_rate::total      0.990512                       # miss rate for ReadCleanReq accesses
system.l2.ReadCleanReq_avg_miss_latency::.cpu.inst        97000                       # average ReadCleanReq miss latency
system.l2.ReadCleanReq_avg_miss_latency::total        97000                       # average ReadCleanReq miss latency
system.l2.ReadCleanReq_mshr_hits::.cpu.inst            1                       # number of ReadCleanReq MSHR hits
system.l2.ReadCleanReq_mshr_hits::total             1                       # number of ReadCleanReq MSHR hits
system.l2.ReadCleanReq_mshr_misses::.cpu.inst          521                       # number of ReadCleanReq MSHR misses
system.l2.ReadCleanReq_mshr_misses::total          521                       # number of ReadCleanReq MSHR misses
system.l2.ReadCleanReq_mshr_miss_latency::.cpu.inst     40134000                       # number of ReadCleanReq MSHR miss cycles
system.l2.ReadCleanReq_mshr_miss_latency::total     40134000                       # number of ReadCleanReq MSHR miss cycles
system.l2.ReadCleanReq_mshr_miss_rate::.cpu.inst     0.988615                       # mshr miss rate for ReadCleanReq accesses
system.l2.ReadCleanReq_mshr_miss_rate::total     0.988615                       # mshr miss rate for ReadCleanReq accesses
system.l2.ReadCleanReq_avg_mshr_miss_latency::.cpu.inst 77032.629559                       # average ReadCleanReq mshr miss latency
system.l2.ReadCleanReq_avg_mshr_miss_latency::total 77032.629559                       # average ReadCleanReq mshr miss latency
system.l2.ReadSharedReq_hits::.cpu.data         11563                       # number of ReadSharedReq hits
system.l2.ReadSharedReq_hits::total             11563                       # number of ReadSharedReq hits
system.l2.ReadSharedReq_misses::.cpu.data         3653                       # number of ReadSharedReq misses
system.l2.ReadSharedReq_misses::total            3653                       # number of ReadSharedReq misses
system.l2.ReadSharedReq_miss_latency::.cpu.data    407003000                       # number of ReadSharedReq miss cycles
system.l2.ReadSharedReq_miss_latency::total    407003000                       # number of ReadSharedReq miss cycles
system.l2.ReadSharedReq_accesses::.cpu.data        15216                       # number of ReadSharedReq accesses(hits+misses)
system.l2.ReadSharedReq_accesses::total         15216                       # number of ReadSharedReq accesses(hits+misses)
system.l2.ReadSharedReq_miss_rate::.cpu.data     0.240076                       # miss rate for ReadSharedReq accesses
system.l2.ReadSharedReq_miss_rate::total     0.240076                       # miss rate for ReadSharedReq accesses
system.l2.ReadSharedReq_avg_miss_latency::.cpu.data 111416.096359                       # average ReadSharedReq miss latency
system.l2.ReadSharedReq_avg_miss_latency::total 111416.096359                       # average ReadSharedReq miss latency
system.l2.ReadSharedReq_mshr_hits::.cpu.data            5                       # number of ReadSharedReq MSHR hits
system.l2.ReadSharedReq_mshr_hits::total            5                       # number of ReadSharedReq MSHR hits
system.l2.ReadSharedReq_mshr_misses::.cpu.data         3648                       # number of ReadSharedReq MSHR misses
system.l2.ReadSharedReq_mshr_misses::total         3648                       # number of ReadSharedReq MSHR misses
system.l2.ReadSharedReq_mshr_miss_latency::.cpu.data    333433000                       # number of ReadSharedReq MSHR miss cycles
system.l2.ReadSharedReq_mshr_miss_latency::total    333433000                       # number of ReadSharedReq MSHR miss cycles
system.l2.ReadSharedReq_mshr_miss_rate::.cpu.data     0.239748                       # mshr miss rate for ReadSharedReq accesses
system.l2.ReadSharedReq_mshr_miss_rate::total     0.239748                       # mshr miss rate for ReadSharedReq accesses
system.l2.ReadSharedReq_avg_mshr_miss_latency::.cpu.data 91401.589912                       # average ReadSharedReq mshr miss latency
system.l2.ReadSharedReq_avg_mshr_miss_latency::total 91401.589912                       # average ReadSharedReq mshr miss latency
system.l2.power_state.pwrStateResidencyTicks::UNDEFINED 112079712000                       # Cumulative time (in ticks) in various power states
system.l2.tags.tagsinuse                 15601.195589                       # Cycle average of tags in use
system.l2.tags.total_refs                      107543                       # Total number of references to valid blocks.
system.l2.tags.sampled_refs                     42986                       # Sample count of references to valid blocks.
system.l2.tags.avg_refs                      2.501815                       # Average number of references to valid blocks.
system.l2.tags.warmup_cycle                     87000                       # Cycle when the warmup percentage was hit.
system.l2.tags.occ_blocks::.writebacks       2.239325                       # Average occupied blocks per requestor
system.l2.tags.occ_blocks::.cpu.inst        48.962728                       # Average occupied blocks per requestor
system.l2.tags.occ_blocks::.cpu.data     15549.993536                       # Average occupied blocks per requestor
system.l2.tags.occ_percent::.writebacks      0.000137                       # Average percentage of cache occupancy
system.l2.tags.occ_percent::.cpu.inst        0.002988                       # Average percentage of cache occupancy
system.l2.tags.occ_percent::.cpu.data        0.949096                       # Average percentage of cache occupancy
system.l2.tags.occ_percent::total            0.952221                       # Average percentage of cache occupancy
system.l2.tags.occ_task_id_blocks::1024         16384                       # Occupied blocks per task id
system.l2.tags.age_task_id_blocks_1024::0            1                       # Occupied blocks per task id
system.l2.tags.age_task_id_blocks_1024::1           18                       # Occupied blocks per task id
system.l2.tags.age_task_id_blocks_1024::2          225                       # Occupied blocks per task id
system.l2.tags.age_task_id_blocks_1024::3         2491                       # Occupied blocks per task id
system.l2.tags.age_task_id_blocks_1024::4        13649                       # Occupied blocks per task id
system.l2.tags.occ_task_id_percent::1024            1                       # Percentage of cache occupancy per task id
system.l2.tags.tag_accesses                    473206                       # Number of tag accesses
system.l2.tags.data_accesses                   473206                       # Number of data accesses
system.l2.tags.power_state.pwrStateResidencyTicks::UNDEFINED 112079712000                       # Cumulative time (in ticks) in various power states
system.mem_ctrls.avgPriority_.writebacks::samples     25974.00                       # Average QoS priority value for accepted requests
system.mem_ctrls.avgPriority_.cpu.inst::samples       521.00                       # Average QoS priority value for accepted requests
system.mem_ctrls.avgPriority_.cpu.data::samples     42445.00                       # Average QoS priority value for accepted requests
system.mem_ctrls.priorityMinLatency      0.000000018750                       # per QoS priority minimum request to response latency (s)
system.mem_ctrls.priorityMaxLatency      0.006076292750                       # per QoS priority maximum request to response latency (s)
system.mem_ctrls.numReadWriteTurnArounds         1444                       # Number of turnarounds from READ to WRITE
system.mem_ctrls.numWriteReadTurnArounds         1444                       # Number of turnarounds from WRITE to READ
system.mem_ctrls.numStayReadState              140408                       # Number of times bus staying in READ state
system.mem_ctrls.numStayWriteState              24599                       # Number of times bus staying in WRITE state
system.mem_ctrls.readReqs                       42979                       # Number of read requests accepted
system.mem_ctrls.writeReqs                      25974                       # Number of write requests accepted
system.mem_ctrls.readBursts                     42979                       # Number of controller read bursts, including those serviced by the write queue
system.mem_ctrls.writeBursts                    25974                       # Number of controller write bursts, including those merged in the write queue
system.mem_ctrls.servicedByWrQ                     13                       # Number of controller read bursts serviced by the write queue
system.mem_ctrls.mergedWrBursts                     0                       # Number of controller write bursts merged with an existing one
system.mem_ctrls.neitherReadNorWriteReqs            0                       # Number of requests that are neither read nor write
system.mem_ctrls.avgRdQLen                       1.03                       # Average read queue length when enqueuing
system.mem_ctrls.avgWrQLen                      22.15                       # Average write queue length when enqueuing
system.mem_ctrls.numRdRetry                         0                       # Number of times read queue was full causing retry
system.mem_ctrls.numWrRetry                         0                       # Number of times write queue was full causing retry
system.mem_ctrls.readPktSize::0                     0                       # Read request sizes (log2)
system.mem_ctrls.readPktSize::1                     0                       # Read request sizes (log2)
system.mem_ctrls.readPktSize::2                     0                       # Read request sizes (log2)
system.mem_ctrls.readPktSize::3                     0                       # Read request sizes (log2)
system.mem_ctrls.readPktSize::4                     0                       # Read request sizes (log2)
system.mem_ctrls.readPktSize::5                     0                       # Read request sizes (log2)
system.mem_ctrls.readPktSize::6                 42979                       # Read request sizes (log2)
system.mem_ctrls.writePktSize::0                    0                       # Write request sizes (log2)
system.mem_ctrls.writePktSize::1                    0                       # Write request sizes (log2)
system.mem_ctrls.writePktSize::2                    0                       # Write request sizes (log2)
system.mem_ctrls.writePktSize::3                    0                       # Write request sizes (log2)
system.mem_ctrls.writePktSize::4                    0                       # Write request sizes (log2)
system.mem_ctrls.writePktSize::5                    0                       # Write request sizes (log2)
system.mem_ctrls.writePktSize::6                25974                       # Write request sizes (log2)
system.mem_ctrls.rdQLenPdf::0                   42014                       # What read queue length does an incoming req see
system.mem_ctrls.rdQLenPdf::1                     946                       # What read queue length does an incoming req see
system.mem_ctrls.rdQLenPdf::2                       6                       # What read queue length does an incoming req see
system.mem_ctrls.rdQLenPdf::3                       0                       # What read queue length does an incoming req see
[...]
system.mem_ctrls.dram.bw_write::.writebacks     14831730                       # Write bandwidth from this memory (bytes/s)
system.mem_ctrls.dram.bw_write::total        14831730                       # Write bandwidth from this memory (bytes/s)
system.mem_ctrls.dram.bw_total::.writebacks     14831730                       # Total bandwidth to/from this memory (bytes/s)
system.mem_ctrls.dram.bw_total::.cpu.inst       297503                       # Total bandwidth to/from this memory (bytes/s)
system.mem_ctrls.dram.bw_total::.cpu.data     24244459                       # Total bandwidth to/from this memory (bytes/s)
system.mem_ctrls.dram.bw_total::total        39373691                       # Total bandwidth to/from this memory (bytes/s)
system.mem_ctrls.dram.readBursts                42966                       # Number of DRAM read bursts
system.mem_ctrls.dram.writeBursts               25958                       # Number of DRAM write bursts
system.mem_ctrls.dram.perBankRdBursts::0         2747                       # Per bank write bursts
system.mem_ctrls.dram.perBankRdBursts::1         2662                       # Per bank write bursts
system.mem_ctrls.dram.perBankRdBursts::2         2676                       # Per bank write bursts
system.mem_ctrls.dram.perBankRdBursts::3         2779                       # Per bank write bursts
system.mem_ctrls.dram.perBankRdBursts::4         2674                       # Per bank write bursts
system.mem_ctrls.dram.perBankRdBursts::5         2533                       # Per bank write bursts
system.mem_ctrls.dram.perBankRdBursts::6         2647                       # Per bank write bursts
system.mem_ctrls.dram.perBankRdBursts::7         2721                       # Per bank write bursts
system.mem_ctrls.dram.perBankRdBursts::8         2640                       # Per bank write bursts
system.mem_ctrls.dram.perBankRdBursts::9         2700                       # Per bank write bursts
system.mem_ctrls.dram.perBankRdBursts::10         2713                       # Per bank write bursts
system.mem_ctrls.dram.perBankRdBursts::11         2693                       # Per bank write bursts
system.mem_ctrls.dram.perBankRdBursts::12         2682                       # Per bank write bursts
system.mem_ctrls.dram.perBankRdBursts::13         2708                       # Per bank write bursts
system.mem_ctrls.dram.perBankRdBursts::14         2697                       # Per bank write bursts
system.mem_ctrls.dram.perBankRdBursts::15         2694                       # Per bank write bursts
system.mem_ctrls.dram.perBankWrBursts::0         1674                       # Per bank write bursts
system.mem_ctrls.dram.perBankWrBursts::1         1596                       # Per bank write bursts
system.mem_ctrls.dram.perBankWrBursts::2         1635                       # Per bank write bursts
system.mem_ctrls.dram.perBankWrBursts::3         1671                       # Per bank write bursts
system.mem_ctrls.dram.perBankWrBursts::4         1608                       # Per bank write bursts
system.mem_ctrls.dram.perBankWrBursts::5         1506                       # Per bank write bursts
system.mem_ctrls.dram.perBankWrBursts::6         1624                       # Per bank write bursts
system.mem_ctrls.dram.perBankWrBursts::7         1670                       # Per bank write bursts
system.mem_ctrls.dram.perBankWrBursts::8         1589                       # Per bank write bursts
system.mem_ctrls.dram.perBankWrBursts::9         1626                       # Per bank write bursts
system.mem_ctrls.dram.perBankWrBursts::10         1649                       # Per bank write bursts
system.mem_ctrls.dram.perBankWrBursts::11         1605                       # Per bank write bursts
system.mem_ctrls.dram.perBankWrBursts::12         1606                       # Per bank write bursts
system.mem_ctrls.dram.perBankWrBursts::13         1659                       # Per bank write bursts
system.mem_ctrls.dram.perBankWrBursts::14         1599                       # Per bank write bursts
system.mem_ctrls.dram.perBankWrBursts::15         1641                       # Per bank write bursts
system.mem_ctrls.dram.totQLat               529506500                       # Total ticks spent queuing
system.mem_ctrls.dram.totBusLat             214830000                       # Total ticks spent in databus transfers
system.mem_ctrls.dram.totMemAccLat         1335119000                       # Total ticks spent from burst creation until serviced by the DRAM
system.mem_ctrls.dram.avgQLat                12323.85                       # Average queueing delay per DRAM burst
system.mem_ctrls.dram.avgBusLat               5000.00                       # Average bus latency per DRAM burst
system.mem_ctrls.dram.avgMemAccLat           31073.85                       # Average memory access latency per DRAM burst
system.mem_ctrls.dram.readRowHits               21977                       # Number of row buffer hits during reads
system.mem_ctrls.dram.writeRowHits              19731                       # Number of row buffer hits during writes
system.mem_ctrls.dram.readRowHitRate            51.15                       # Row buffer hit rate for reads
system.mem_ctrls.dram.writeRowHitRate           76.01                       # Row buffer hit rate for writes
system.mem_ctrls.dram.bytesPerActivate::samples        27216                       # Bytes accessed per row activation
system.mem_ctrls.dram.bytesPerActivate::mean   162.078777                       # Bytes accessed per row activation
system.mem_ctrls.dram.bytesPerActivate::gmean   113.309789                       # Bytes accessed per row activation
system.mem_ctrls.dram.bytesPerActivate::stdev   187.943794                       # Bytes accessed per row activation
system.mem_ctrls.dram.bytesPerActivate::0-127        13902     51.08%     51.08% # Bytes accessed per row activation
system.mem_ctrls.dram.bytesPerActivate::128-255         8830     32.44%     83.52% # Bytes accessed per row activation
system.mem_ctrls.dram.bytesPerActivate::256-383         1322      4.86%     88.38% # Bytes accessed per row activation
system.mem_ctrls.dram.bytesPerActivate::384-511         1186      4.36%     92.74% # Bytes accessed per row activation
system.mem_ctrls.dram.bytesPerActivate::512-639          857      3.15%     95.89% # Bytes accessed per row activation
system.mem_ctrls.dram.bytesPerActivate::640-767          277      1.02%     96.91% # Bytes accessed per row activation
system.mem_ctrls.dram.bytesPerActivate::768-895          198      0.73%     97.63% # Bytes accessed per row activation
system.mem_ctrls.dram.bytesPerActivate::896-1023          193      0.71%     98.34% # Bytes accessed per row activation
system.mem_ctrls.dram.bytesPerActivate::1024-1151          451      1.66%    100.00% # Bytes accessed per row activation
system.mem_ctrls.dram.bytesPerActivate::total        27216                       # Bytes accessed per row activation
system.mem_ctrls.dram.bytesRead               2749824                       # Total number of bytes read from DRAM
system.mem_ctrls.dram.bytesWritten            1661312                       # Total number of bytes written to DRAM
system.mem_ctrls.dram.avgRdBW               24.534538                       # Average DRAM read bandwidth in MiBytes/s
system.mem_ctrls.dram.avgWrBW               14.822593                       # Average DRAM write bandwidth in MiBytes/s
system.mem_ctrls.dram.peakBW                 12800.00                       # Theoretical peak bandwidth in MiByte/s
system.mem_ctrls.dram.busUtil                    0.31                       # Data bus utilization in percentage
system.mem_ctrls.dram.busUtilRead                0.19                       # Data bus utilization in percentage for reads
system.mem_ctrls.dram.busUtilWrite               0.12                       # Data bus utilization in percentage for writes
system.mem_ctrls.dram.pageHitRate               60.51                       # Row buffer hit rate, read and write combined
system.mem_ctrls.dram.power_state.pwrStateResidencyTicks::UNDEFINED 112079712000                       # Cumulative time (in ticks) in various power states
system.mem_ctrls.dram.rank0.actEnergy        98910420                       # Energy for activate commands per rank (pJ)
system.mem_ctrls.dram.rank0.preEnergy        52572135                       # Energy for precharge commands per rank (pJ)
system.mem_ctrls.dram.rank0.readEnergy      153074460                       # Energy for read commands per rank (pJ)
system.mem_ctrls.dram.rank0.writeEnergy      67776480                       # Energy for write commands per rank (pJ)
system.mem_ctrls.dram.rank0.refreshEnergy 8847128160.000002                       # Energy for refresh commands per rank (pJ)
system.mem_ctrls.dram.rank0.actBackEnergy  21951647340                       # Energy for active background per rank (pJ)
system.mem_ctrls.dram.rank0.preBackEnergy  24553011840                       # Energy for precharge background per rank (pJ)
system.mem_ctrls.dram.rank0.actPowerDownEnergy            0                       # Energy for active power-down per rank (pJ)
system.mem_ctrls.dram.rank0.prePowerDownEnergy            0                       # Energy for precharge power-down per rank (pJ)
system.mem_ctrls.dram.rank0.selfRefreshEnergy            0                       # Energy for self refresh per rank (pJ)
system.mem_ctrls.dram.rank0.totalEnergy   55724120835                       # Total energy per rank (pJ)
system.mem_ctrls.dram.rank0.averagePower   497.182941                       # Core power per rank (mW)
system.mem_ctrls.dram.rank0.totalIdleTime            0                       # Total Idle time Per DRAM Rank
system.mem_ctrls.dram.rank0.pwrStateTime::IDLE  63612629750                       # Time in different power states
system.mem_ctrls.dram.rank0.pwrStateTime::REF   3742440000                       # Time in different power states
system.mem_ctrls.dram.rank0.pwrStateTime::SREF            0                       # Time in different power states
system.mem_ctrls.dram.rank0.pwrStateTime::PRE_PDN            0                       # Time in different power states
system.mem_ctrls.dram.rank0.pwrStateTime::ACT  44724642250                       # Time in different power states
system.mem_ctrls.dram.rank0.pwrStateTime::ACT_PDN            0                       # Time in different power states
system.mem_ctrls.dram.rank1.actEnergy        95411820                       # Energy for activate commands per rank (pJ)
system.mem_ctrls.dram.rank1.preEnergy        50712585                       # Energy for precharge commands per rank (pJ)
system.mem_ctrls.dram.rank1.readEnergy      153702780                       # Energy for read commands per rank (pJ)
system.mem_ctrls.dram.rank1.writeEnergy      67724280                       # Energy for write commands per rank (pJ)
system.mem_ctrls.dram.rank1.refreshEnergy 8847128160.000002                       # Energy for refresh commands per rank (pJ)
system.mem_ctrls.dram.rank1.actBackEnergy  21786099960                       # Energy for active background per rank (pJ)
system.mem_ctrls.dram.rank1.preBackEnergy  24692420160                       # Energy for precharge background per rank (pJ)
system.mem_ctrls.dram.rank1.actPowerDownEnergy            0                       # Energy for active power-down per rank (pJ)
system.mem_ctrls.dram.rank1.prePowerDownEnergy            0                       # Energy for precharge power-down per rank (pJ)
system.mem_ctrls.dram.rank1.selfRefreshEnergy            0                       # Energy for self refresh per rank (pJ)
system.mem_ctrls.dram.rank1.totalEnergy   55693199745                       # Total energy per rank (pJ)
system.mem_ctrls.dram.rank1.averagePower   496.907056                       # Core power per rank (mW)
system.mem_ctrls.dram.rank1.totalIdleTime            0                       # Total Idle time Per DRAM Rank
system.mem_ctrls.dram.rank1.pwrStateTime::IDLE  63976726000                       # Time in different power states
system.mem_ctrls.dram.rank1.pwrStateTime::REF   3742440000                       # Time in different power states
system.mem_ctrls.dram.rank1.pwrStateTime::SREF            0                       # Time in different power states
system.mem_ctrls.dram.rank1.pwrStateTime::PRE_PDN            0                       # Time in different power states
system.mem_ctrls.dram.rank1.pwrStateTime::ACT  44360546000                       # Time in different power states
system.mem_ctrls.dram.rank1.pwrStateTime::ACT_PDN            0                       # Time in different power states
system.mem_ctrls.power_state.pwrStateResidencyTicks::UNDEFINED 112079712000                       # Cumulative time (in ticks) in various power states
system.membus.trans_dist::ReadResp               4169                       # Transaction distribution
system.membus.trans_dist::WritebackDirty        25974                       # Transaction distribution
system.membus.trans_dist::CleanEvict               73                       # Transaction distribution
system.membus.trans_dist::ReadExReq             38810                       # Transaction distribution
system.membus.trans_dist::ReadExResp            38810                       # Transaction distribution
system.membus.trans_dist::ReadSharedReq          4169                       # Transaction distribution
system.membus.pkt_count_system.l2.mem_side_port::system.mem_ctrls.port       112005                       # Packet count per connected requestor and responder (bytes)
system.membus.pkt_count::total                 112005                       # Packet count per connected requestor and responder (bytes)
system.membus.pkt_size_system.l2.mem_side_port::system.mem_ctrls.port      4412992                       # Cumulative packet size per connected requestor and responder (bytes)
system.membus.pkt_size::total                 4412992                       # Cumulative packet size per connected requestor and responder (bytes)
system.membus.snoops                                0                       # Total snoops (count)
system.membus.snoopTraffic                          0                       # Total snoop traffic (bytes)
system.membus.snoop_fanout::samples             42979                       # Request fanout histogram
system.membus.snoop_fanout::mean                    0                       # Request fanout histogram
system.membus.snoop_fanout::stdev                   0                       # Request fanout histogram
system.membus.snoop_fanout::underflows              0      0.00%      0.00% # Request fanout histogram
system.membus.snoop_fanout::0                   42979    100.00%    100.00% # Request fanout histogram
system.membus.snoop_fanout::1                       0      0.00%    100.00% # Request fanout histogram
system.membus.snoop_fanout::overflows               0      0.00%    100.00% # Request fanout histogram
system.membus.snoop_fanout::min_value               0                       # Request fanout histogram
system.membus.snoop_fanout::max_value               0                       # Request fanout histogram
system.membus.snoop_fanout::total               42979                       # Request fanout histogram
system.membus.power_state.pwrStateResidencyTicks::UNDEFINED 112079712000                       # Cumulative time (in ticks) in various power states
system.membus.reqLayer0.occupancy           172922000                       # Layer occupancy (ticks)
system.membus.reqLayer0.utilization               0.2                       # Layer utilization (%)
system.membus.respLayer1.occupancy          230893000                       # Layer occupancy (ticks)
system.membus.respLayer1.utilization              0.2                       # Layer utilization (%)
system.tol2bus.trans_dist::ReadResp             15743                       # Transaction distribution
system.tol2bus.trans_dist::WritebackDirty        75865                       # Transaction distribution
system.tol2bus.trans_dist::WritebackClean            5                       # Transaction distribution
system.tol2bus.trans_dist::CleanEvict            3749                       # Transaction distribution
system.tol2bus.trans_dist::ReadExReq            38820                       # Transaction distribution
system.tol2bus.trans_dist::ReadExResp           38820                       # Transaction distribution
system.tol2bus.trans_dist::ReadCleanReq           527                       # Transaction distribution
system.tol2bus.trans_dist::ReadSharedReq        15216                       # Transaction distribution
system.tol2bus.pkt_count_system.cpu.icache.mem_side_port::system.l2.cpu_side_port         1059                       # Packet count per connected requestor and responder (bytes)
system.tol2bus.pkt_count_system.cpu.dcache.mem_side_port::system.l2.cpu_side_port       161084                       # Packet count per connected requestor and responder (bytes)
system.tol2bus.pkt_count::total                162143                       # Packet count per connected requestor and responder (bytes)
system.tol2bus.pkt_size_system.cpu.icache.mem_side_port::system.l2.cpu_side_port        34048                       # Cumulative packet size per connected requestor and responder (bytes)
system.tol2bus.pkt_size_system.cpu.dcache.mem_side_port::system.l2.cpu_side_port      6651328                       # Cumulative packet size per connected requestor and responder (bytes)
system.tol2bus.pkt_size::total                6685376                       # Cumulative packet size per connected requestor and responder (bytes)
system.tol2bus.snoops                           26602                       # Total snoops (count)
system.tol2bus.snoopTraffic                   1662336                       # Total snoop traffic (bytes)
system.tol2bus.snoop_fanout::samples            81165                       # Request fanout histogram
system.tol2bus.snoop_fanout::mean            0.007318                       # Request fanout histogram
system.tol2bus.snoop_fanout::stdev           0.085811                       # Request fanout histogram
system.tol2bus.snoop_fanout::underflows             0      0.00%      0.00% # Request fanout histogram
system.tol2bus.snoop_fanout::0                  80575     99.27%     99.27% # Request fanout histogram
system.tol2bus.snoop_fanout::1                    586      0.72%    100.00% # Request fanout histogram
system.tol2bus.snoop_fanout::2                      4      0.00%    100.00% # Request fanout histogram
system.tol2bus.snoop_fanout::overflows              0      0.00%    100.00% # Request fanout histogram
system.tol2bus.snoop_fanout::min_value              0                       # Request fanout histogram
system.tol2bus.snoop_fanout::max_value              2                       # Request fanout histogram
system.tol2bus.snoop_fanout::total              81165                       # Request fanout histogram
system.tol2bus.power_state.pwrStateResidencyTicks::UNDEFINED 112079712000                       # Cumulative time (in ticks) in various power states
system.tol2bus.reqLayer0.occupancy          207372000                       # Layer occupancy (ticks)
system.tol2bus.reqLayer0.utilization              0.2                       # Layer utilization (%)
system.tol2bus.respLayer0.occupancy           1581999                       # Layer occupancy (ticks)
system.tol2bus.respLayer0.utilization             0.0                       # Layer utilization (%)
system.tol2bus.respLayer1.occupancy         162112995                       # Layer occupancy (ticks)
system.tol2bus.respLayer1.utilization             0.1                       # Layer utilization (%)
system.voltage_domain.voltage                       1                       # Voltage in Volts

---------- End Simulation Statistics   ----------
