
---------- Begin Simulation Statistics ----------
final_tick                               705551024000                       # Number of ticks from beginning of simulation (restored from checkpoints and never reset)
host_inst_rate                                 189721                       # Simulator instruction rate (inst/s)
host_mem_usage                                 661556                       # Number of bytes of host memory used
host_op_rate                                   349501                       # Simulator op (including micro ops) rate (op/s)
host_seconds                                   527.09                       # Real time elapsed on the host
host_tick_rate                             1338577010                       # Simulator tick rate (ticks/s)
sim_freq                                 1000000000000                       # Frequency of simulated ticks
sim_insts                                   100000000                       # Number of instructions simulated
sim_ops                                     184218810                       # Number of ops (including micro ops) simulated
sim_seconds                                  0.705551                       # Number of seconds simulated
sim_ticks                                705551024000                       # Number of ticks simulated
system.cpu.committedInsts                   100000000                       # Number of instructions committed
system.cpu.committedOps                     184218810                       # Number of ops (including micro ops) committed
system.cpu.cpi                               7.055510                       # CPI: cycles per instruction
system.cpu.discardedOps                          4409                       # Number of ops (including micro ops) which were discarded before commit
system.cpu.idleCycles                       483866606                       # Total number of cycles that the object has spent stopped
system.cpu.ipc                               0.141733                       # IPC: instructions per cycle
system.cpu.numCycles                        705551024                       # number of cpu cycles simulated
system.cpu.numFetchSuspends                         0                       # Number of times Execute suspended instruction fetching
system.cpu.numWorkItemsCompleted                    0                       # number of work items this cpu completed
system.cpu.numWorkItemsStarted                      0                       # number of work items this cpu started
system.cpu.op_class_0::No_OpClass                   0      0.00%      0.00% # Class of committed instruction
system.cpu.op_class_0::IntAlu                97640467     53.00%     53.00% # Class of committed instruction
system.cpu.op_class_0::IntMult                 114702      0.06%     53.06% # Class of committed instruction
system.cpu.op_class_0::IntDiv                       0      0.00%     53.06% # Class of committed instruction
system.cpu.op_class_0::FloatAdd                     0      0.00%     53.06% # Class of committed instruction
system.cpu.op_class_0::FloatCmp                     0      0.00%     53.06% # Class of committed instruction
system.cpu.op_class_0::FloatCvt                     0      0.00%     53.06% # Class of committed instruction
system.cpu.op_class_0::FloatMult                    0      0.00%     53.06% # Class of committed instruction
system.cpu.op_class_0::FloatMultAcc                 0      0.00%     53.06% # Class of committed instruction
system.cpu.op_class_0::FloatDiv                     0      0.00%     53.06% # Class of committed instruction
system.cpu.op_class_0::FloatMisc                    0      0.00%     53.06% # Class of committed instruction
system.cpu.op_class_0::FloatSqrt                    0      0.00%     53.06% # Class of committed instruction
system.cpu.op_class_0::SimdAdd                      8      0.00%     53.06% # Class of committed instruction
system.cpu.op_class_0::SimdAddAcc                   0      0.00%     53.06% # Class of committed instruction
system.cpu.op_class_0::SimdAlu                     10      0.00%     53.06% # Class of committed instruction
system.cpu.op_class_0::SimdCmp                      8      0.00%     53.06% # Class of committed instruction
system.cpu.op_class_0::SimdCvt                      0      0.00%     53.06% # Class of committed instruction
system.cpu.op_class_0::SimdMisc                     1      0.00%     53.06% # Class of committed instruction
system.cpu.op_class_0::SimdMult                     0      0.00%     53.06% # Class of committed instruction
system.cpu.op_class_0::SimdMultAcc                  0      0.00%     53.06% # Class of committed instruction
system.cpu.op_class_0::SimdShift                    0      0.00%     53.06% # Class of committed instruction
system.cpu.op_class_0::SimdShiftAcc                 0      0.00%     53.06% # Class of committed instruction
system.cpu.op_class_0::SimdDiv                      0      0.00%     53.06% # Class of committed instruction
system.cpu.op_class_0::SimdSqrt                     0      0.00%     53.06% # Class of committed instruction
system.cpu.op_class_0::SimdFloatAdd                 0      0.00%     53.06% # Class of committed instruction
system.cpu.op_class_0::SimdFloatAlu                 0      0.00%     53.06% # Class of committed instruction
system.cpu.op_class_0::SimdFloatCmp                 0      0.00%     53.06% # Class of committed instruction
system.cpu.op_class_0::SimdFloatCvt                 0      0.00%     53.06% # Class of committed instruction
system.cpu.op_class_0::SimdFloatDiv                 0      0.00%     53.06% # Class of committed instruction
system.cpu.op_class_0::SimdFloatMisc               24      0.00%     53.06% # Class of committed instruction
system.cpu.op_class_0::SimdFloatMult                0      0.00%     53.06% # Class of committed instruction
system.cpu.op_class_0::SimdFloatMultAcc             0      0.00%     53.06% # Class of committed instruction
system.cpu.op_class_0::SimdFloatSqrt                0      0.00%     53.06% # Class of committed instruction
system.cpu.op_class_0::SimdReduceAdd                0      0.00%     53.06% # Class of committed instruction
system.cpu.op_class_0::SimdReduceAlu                0      0.00%     53.06% # Class of committed instruction
system.cpu.op_class_0::SimdReduceCmp                0      0.00%     53.06% # Class of committed instruction
system.cpu.op_class_0::SimdFloatReduceAdd            0      0.00%     53.06% # Class of committed instruction
system.cpu.op_class_0::SimdFloatReduceCmp            0      0.00%     53.06% # Class of committed instruction
system.cpu.op_class_0::SimdAes                      0      0.00%     53.06% # Class of committed instruction
system.cpu.op_class_0::SimdAesMix                   0      0.00%     53.06% # Class of committed instruction
system.cpu.op_class_0::SimdSha1Hash                 0      0.00%     53.06% # Class of committed instruction
system.cpu.op_class_0::SimdSha1Hash2                0      0.00%     53.06% # Class of committed instruction
system.cpu.op_class_0::SimdSha256Hash               0      0.00%     53.06% # Class of committed instruction
system.cpu.op_class_0::SimdSha256Hash2              0      0.00%     53.06% # Class of committed instruction
system.cpu.op_class_0::SimdShaSigma2                0      0.00%     53.06% # Class of committed instruction
system.cpu.op_class_0::SimdShaSigma3                0      0.00%     53.06% # Class of committed instruction
system.cpu.op_class_0::SimdPredAlu                  0      0.00%     53.06% # Class of committed instruction
system.cpu.op_class_0::MemRead                2082677      1.13%     54.20% # Class of committed instruction
system.cpu.op_class_0::MemWrite              84380913     45.80%    100.00% # Class of committed instruction
system.cpu.op_class_0::FloatMemRead                 0      0.00%    100.00% # Class of committed instruction
system.cpu.op_class_0::FloatMemWrite                0      0.00%    100.00% # Class of committed instruction
system.cpu.op_class_0::IprAccess                    0      0.00%    100.00% # Class of committed instruction
system.cpu.op_class_0::InstPrefetch                 0      0.00%    100.00% # Class of committed instruction
system.cpu.op_class_0::total                184218810                       # Class of committed instruction
system.cpu.tickCycles                       221684418                       # Number of cycles that the object actually ticked
system.cpu.workload.numSyscalls                    19                       # Number of system calls
system.membus.snoop_filter.hit_multi_requests            0                       # Number of requests hitting in the snoop filter with multiple (>1) holders of the requested data.
system.membus.snoop_filter.hit_multi_snoops            0                       # Number of snoops hitting in the snoop filter with multiple (>1) holders of the requested data.
system.membus.snoop_filter.hit_single_requests      5255094                       # Number of requests hitting in the snoop filter with a single holder of the requested data.
system.membus.snoop_filter.hit_single_snoops            0                       # Number of snoops hitting in the snoop filter with a single holder of the requested data.
system.membus.snoop_filter.tot_requests      10518974                       # Total number of requests made to the snoop filter.
system.membus.snoop_filter.tot_snoops               0                       # Total number of snoops made to the snoop filter.
system.tol2bus.snoop_filter.hit_multi_requests           57                       # Number of requests hitting in the snoop filter with multiple (>1) holders of the requested data.
system.tol2bus.snoop_filter.hit_multi_snoops            0                       # Number of snoops hitting in the snoop filter with multiple (>1) holders of the requested data.
system.tol2bus.snoop_filter.hit_single_requests      5262350                       # Number of requests hitting in the snoop filter with a single holder of the requested data.
system.tol2bus.snoop_filter.hit_single_snoops          618                       # Number of snoops hitting in the snoop filter with a single holder of the requested data.
system.tol2bus.snoop_filter.tot_requests     10526331                       # Total number of requests made to the snoop filter.
system.tol2bus.snoop_filter.tot_snoops            618                       # Total number of snoops made to the snoop filter.
system.clk_domain.clock                          1000                       # Clock period in ticks
system.cpu.branchPred.lookups                10658234                       # Number of BP lookups
system.cpu.branchPred.condPredicted          10650001                       # Number of conditional branches predicted
system.cpu.branchPred.condIncorrect              1453                       # Number of conditional branches incorrect
system.cpu.branchPred.BTBLookups             10650211                       # Number of BTB lookups
system.cpu.branchPred.BTBHits                10648848                       # Number of BTB hits
system.cpu.branchPred.BTBHitPct             99.987202                       # BTB Hit Percentage
system.cpu.branchPred.RASUsed                    2713                       # Number of times the RAS was used to get a target.
system.cpu.branchPred.RASIncorrect                  1                       # Number of incorrect RAS predictions.
system.cpu.branchPred.indirectLookups             195                       # Number of indirect predictor lookups.
system.cpu.branchPred.indirectHits                 18                       # Number of indirect target hits.
system.cpu.branchPred.indirectMisses              177                       # Number of indirect misses.
system.cpu.branchPred.indirectMispredicted          105                       # Number of mispredicted indirect branches.
system.cpu.dcache.demand_hits::.cpu.data     75856968                       # number of demand (read+write) hits
system.cpu.dcache.demand_hits::total         75856968                       # number of demand (read+write) hits
system.cpu.dcache.overall_hits::.cpu.data     75857005                       # number of overall hits
system.cpu.dcache.overall_hits::total        75857005                       # number of overall hits
system.cpu.dcache.demand_misses::.cpu.data     10523797                       # number of demand (read+write) misses
system.cpu.dcache.demand_misses::total       10523797                       # number of demand (read+write) misses
system.cpu.dcache.overall_misses::.cpu.data     10523831                       # number of overall misses
system.cpu.dcache.overall_misses::total      10523831                       # number of overall misses
system.cpu.dcache.demand_miss_latency::.cpu.data 1109354907999                       # number of demand (read+write) miss cycles
system.cpu.dcache.demand_miss_latency::total 1109354907999                       # number of demand (read+write) miss cycles
system.cpu.dcache.overall_miss_latency::.cpu.data 1109354907999                       # number of overall miss cycles
system.cpu.dcache.overall_miss_latency::total 1109354907999                       # number of overall miss cycles
system.cpu.dcache.demand_accesses::.cpu.data     86380765                       # number of demand (read+write) accesses
system.cpu.dcache.demand_accesses::total     86380765                       # number of demand (read+write) accesses
system.cpu.dcache.overall_accesses::.cpu.data     86380836                       # number of overall (read+write) accesses
system.cpu.dcache.overall_accesses::total     86380836                       # number of overall (read+write) accesses
system.cpu.dcache.demand_miss_rate::.cpu.data     0.121830                       # miss rate for demand accesses
system.cpu.dcache.demand_miss_rate::total     0.121830                       # miss rate for demand accesses
system.cpu.dcache.overall_miss_rate::.cpu.data     0.121831                       # miss rate for overall accesses
system.cpu.dcache.overall_miss_rate::total     0.121831                       # miss rate for overall accesses
system.cpu.dcache.demand_avg_miss_latency::.cpu.data 105413.940235                       # average overall miss latency
system.cpu.dcache.demand_avg_miss_latency::total 105413.940235                       # average overall miss latency
system.cpu.dcache.overall_avg_miss_latency::.cpu.data 105413.599667                       # average overall miss latency
system.cpu.dcache.overall_avg_miss_latency::total 105413.599667                       # average overall miss latency
system.cpu.dcache.blocked_cycles::no_mshrs          169                       # number of cycles access was blocked
system.cpu.dcache.blocked_cycles::no_targets            0                       # number of cycles access was blocked
system.cpu.dcache.blocked::no_mshrs                 4                       # number of cycles access was blocked
system.cpu.dcache.blocked::no_targets               0                       # number of cycles access was blocked
system.cpu.dcache.avg_blocked_cycles::no_mshrs    42.250000                       # average number of cycles each access was blocked
system.cpu.dcache.avg_blocked_cycles::no_targets          nan                       # average number of cycles each access was blocked
system.cpu.dcache.writebacks::.writebacks      5262054                       # number of writebacks
system.cpu.dcache.writebacks::total           5262054                       # number of writebacks
system.cpu.dcache.demand_mshr_hits::.cpu.data      5260456                       # number of demand (read+write) MSHR hits
system.cpu.dcache.demand_mshr_hits::total      5260456                       # number of demand (read+write) MSHR hits
system.cpu.dcache.overall_mshr_hits::.cpu.data      5260456                       # number of overall MSHR hits
system.cpu.dcache.overall_mshr_hits::total      5260456                       # number of overall MSHR hits
system.cpu.dcache.demand_mshr_misses::.cpu.data      5263341                       # number of demand (read+write) MSHR misses
system.cpu.dcache.demand_mshr_misses::total      5263341                       # number of demand (read+write) MSHR misses
system.cpu.dcache.overall_mshr_misses::.cpu.data      5263372                       # number of overall MSHR misses
system.cpu.dcache.overall_mshr_misses::total      5263372                       # number of overall MSHR misses
system.cpu.dcache.demand_mshr_miss_latency::.cpu.data 541678677000                       # number of demand (read+write) MSHR miss cycles
system.cpu.dcache.demand_mshr_miss_latency::total 541678677000                       # number of demand (read+write) MSHR miss cycles
system.cpu.dcache.overall_mshr_miss_latency::.cpu.data 541681635000                       # number of overall MSHR miss cycles
system.cpu.dcache.overall_mshr_miss_latency::total 541681635000                       # number of overall MSHR miss cycles
system.cpu.dcache.demand_mshr_miss_rate::.cpu.data     0.060932                       # mshr miss rate for demand accesses
system.cpu.dcache.demand_mshr_miss_rate::total     0.060932                       # mshr miss rate for demand accesses
system.cpu.dcache.overall_mshr_miss_rate::.cpu.data     0.060932                       # mshr miss rate for overall accesses
system.cpu.dcache.overall_mshr_miss_rate::total     0.060932                       # mshr miss rate for overall accesses
system.cpu.dcache.demand_avg_mshr_miss_latency::.cpu.data 102915.368204                       # average overall mshr miss latency
system.cpu.dcache.demand_avg_mshr_miss_latency::total 102915.368204                       # average overall mshr miss latency
system.cpu.dcache.overall_avg_mshr_miss_latency::.cpu.data 102915.324055                       # average overall mshr miss latency
system.cpu.dcache.overall_avg_mshr_miss_latency::total 102915.324055                       # average overall mshr miss latency
system.cpu.dcache.replacements                5262347                       # number of replacements
system.cpu.dcache.ReadReq_hits::.cpu.data      2043822                       # number of ReadReq hits
system.cpu.dcache.ReadReq_hits::total         2043822                       # number of ReadReq hits
system.cpu.dcache.ReadReq_misses::.cpu.data          325                       # number of ReadReq misses
system.cpu.dcache.ReadReq_misses::total           325                       # number of ReadReq misses
system.cpu.dcache.ReadReq_miss_latency::.cpu.data     32398000                       # number of ReadReq miss cycles
system.cpu.dcache.ReadReq_miss_latency::total     32398000                       # number of ReadReq miss cycles
system.cpu.dcache.ReadReq_accesses::.cpu.data      2044147                       # number of ReadReq accesses(hits+misses)
system.cpu.dcache.ReadReq_accesses::total      2044147                       # number of ReadReq accesses(hits+misses)
system.cpu.dcache.ReadReq_miss_rate::.cpu.data     0.000159                       # miss rate for ReadReq accesses
system.cpu.dcache.ReadReq_miss_rate::total     0.000159                       # miss rate for ReadReq accesses
system.cpu.dcache.ReadReq_avg_miss_latency::.cpu.data 99686.153846                       # average ReadReq miss latency
system.cpu.dcache.ReadReq_avg_miss_latency::total 99686.153846                       # average ReadReq miss latency
system.cpu.dcache.ReadReq_mshr_hits::.cpu.data           21                       # number of ReadReq MSHR hits
system.cpu.dcache.ReadReq_mshr_hits::total           21                       # number of ReadReq MSHR hits
system.cpu.dcache.ReadReq_mshr_misses::.cpu.data          304                       # number of ReadReq MSHR misses
system.cpu.dcache.ReadReq_mshr_misses::total          304                       # number of ReadReq MSHR misses
system.cpu.dcache.ReadReq_mshr_miss_latency::.cpu.data     29776000                       # number of ReadReq MSHR miss cycles
system.cpu.dcache.ReadReq_mshr_miss_latency::total     29776000                       # number of ReadReq MSHR miss cycles
system.cpu.dcache.ReadReq_mshr_miss_rate::.cpu.data     0.000149                       # mshr miss rate for ReadReq accesses
system.cpu.dcache.ReadReq_mshr_miss_rate::total     0.000149                       # mshr miss rate for ReadReq accesses
system.cpu.dcache.ReadReq_avg_mshr_miss_latency::.cpu.data 97947.368421                       # average ReadReq mshr miss latency
system.cpu.dcache.ReadReq_avg_mshr_miss_latency::total 97947.368421                       # average ReadReq mshr miss latency
system.cpu.dcache.WriteReq_hits::.cpu.data     73813146                       # number of WriteReq hits
system.cpu.dcache.WriteReq_hits::total       73813146                       # number of WriteReq hits
system.cpu.dcache.WriteReq_misses::.cpu.data     10523472                       # number of WriteReq misses
system.cpu.dcache.WriteReq_misses::total     10523472                       # number of WriteReq misses
system.cpu.dcache.WriteReq_miss_latency::.cpu.data 1109322509999                       # number of WriteReq miss cycles
system.cpu.dcache.WriteReq_miss_latency::total 1109322509999                       # number of WriteReq miss cycles
system.cpu.dcache.WriteReq_accesses::.cpu.data     84336618                       # number of WriteReq accesses(hits+misses)
system.cpu.dcache.WriteReq_accesses::total     84336618                       # number of WriteReq accesses(hits+misses)
system.cpu.dcache.WriteReq_miss_rate::.cpu.data     0.124779                       # miss rate for WriteReq accesses
system.cpu.dcache.WriteReq_miss_rate::total     0.124779                       # miss rate for WriteReq accesses
system.cpu.dcache.WriteReq_avg_miss_latency::.cpu.data 105414.117128                       # average WriteReq miss latency
system.cpu.dcache.WriteReq_avg_miss_latency::total 105414.117128                       # average WriteReq miss latency
system.cpu.dcache.WriteReq_mshr_hits::.cpu.data      5260435                       # number of WriteReq MSHR hits
system.cpu.dcache.WriteReq_mshr_hits::total      5260435                       # number of WriteReq MSHR hits
system.cpu.dcache.WriteReq_mshr_misses::.cpu.data      5263037                       # number of WriteReq MSHR misses
system.cpu.dcache.WriteReq_mshr_misses::total      5263037                       # number of WriteReq MSHR misses
system.cpu.dcache.WriteReq_mshr_miss_latency::.cpu.data 541648901000                       # number of WriteReq MSHR miss cycles
system.cpu.dcache.WriteReq_mshr_miss_latency::total 541648901000                       # number of WriteReq MSHR miss cycles
system.cpu.dcache.WriteReq_mshr_miss_rate::.cpu.data     0.062405                       # mshr miss rate for WriteReq accesses
system.cpu.dcache.WriteReq_mshr_miss_rate::total     0.062405                       # mshr miss rate for WriteReq accesses
system.cpu.dcache.WriteReq_avg_mshr_miss_latency::.cpu.data 102915.655163                       # average WriteReq mshr miss latency
system.cpu.dcache.WriteReq_avg_mshr_miss_latency::total 102915.655163                       # average WriteReq mshr miss latency
system.cpu.dcache.SoftPFReq_hits::.cpu.data           37                       # number of SoftPFReq hits
system.cpu.dcache.SoftPFReq_hits::total            37                       # number of SoftPFReq hits
system.cpu.dcache.SoftPFReq_misses::.cpu.data           34                       # number of SoftPFReq misses
system.cpu.dcache.SoftPFReq_misses::total           34                       # number of SoftPFReq misses
system.cpu.dcache.SoftPFReq_accesses::.cpu.data           71                       # number of SoftPFReq accesses(hits+misses)
system.cpu.dcache.SoftPFReq_accesses::total           71                       # number of SoftPFReq accesses(hits+misses)
system.cpu.dcache.SoftPFReq_miss_rate::.cpu.data     0.478873                       # miss rate for SoftPFReq accesses
system.cpu.dcache.SoftPFReq_miss_rate::total     0.478873                       # miss rate for SoftPFReq accesses
system.cpu.dcache.SoftPFReq_mshr_misses::.cpu.data           31                       # number of SoftPFReq MSHR misses
system.cpu.dcache.SoftPFReq_mshr_misses::total           31                       # number of SoftPFReq MSHR misses
system.cpu.dcache.SoftPFReq_mshr_miss_latency::.cpu.data      2958000                       # number of SoftPFReq MSHR miss cycles
system.cpu.dcache.SoftPFReq_mshr_miss_latency::total      2958000                       # number of SoftPFReq MSHR miss cycles
system.cpu.dcache.SoftPFReq_mshr_miss_rate::.cpu.data     0.436620                       # mshr miss rate for SoftPFReq accesses
system.cpu.dcache.SoftPFReq_mshr_miss_rate::total     0.436620                       # mshr miss rate for SoftPFReq accesses
system.cpu.dcache.SoftPFReq_avg_mshr_miss_latency::.cpu.data 95419.354839                       # average SoftPFReq mshr miss latency
system.cpu.dcache.SoftPFReq_avg_mshr_miss_latency::total 95419.354839                       # average SoftPFReq mshr miss latency
system.cpu.dcache.LoadLockedReq_hits::.cpu.data           34                       # number of LoadLockedReq hits
system.cpu.dcache.LoadLockedReq_hits::total           34                       # number of LoadLockedReq hits
system.cpu.dcache.LoadLockedReq_accesses::.cpu.data           34                       # number of LoadLockedReq accesses(hits+misses)
system.cpu.dcache.LoadLockedReq_accesses::total           34                       # number of LoadLockedReq accesses(hits+misses)
system.cpu.dcache.StoreCondReq_hits::.cpu.data           34                       # number of StoreCondReq hits
system.cpu.dcache.StoreCondReq_hits::total           34                       # number of StoreCondReq hits
system.cpu.dcache.StoreCondReq_accesses::.cpu.data           34                       # number of StoreCondReq accesses(hits+misses)
system.cpu.dcache.StoreCondReq_accesses::total           34                       # number of StoreCondReq accesses(hits+misses)
system.cpu.dcache.power_state.pwrStateResidencyTicks::UNDEFINED 705551024000                       # Cumulative time (in ticks) in various power states
system.cpu.dcache.tags.tagsinuse          1023.429424                       # Cycle average of tags in use
system.cpu.dcache.tags.total_refs            81120444                       # Total number of references to valid blocks.
system.cpu.dcache.tags.sampled_refs           5263371                       # Sample count of references to valid blocks.
system.cpu.dcache.tags.avg_refs             15.412260                       # Average number of references to valid blocks.
system.cpu.dcache.tags.warmup_cycle            223000                       # Cycle when the warmup percentage was hit.
system.cpu.dcache.tags.occ_blocks::.cpu.data  1023.429424                       # Average occupied blocks per requestor
system.cpu.dcache.tags.occ_percent::.cpu.data     0.999443                       # Average percentage of cache occupancy
system.cpu.dcache.tags.occ_percent::total     0.999443                       # Average percentage of cache occupancy
system.cpu.dcache.tags.occ_task_id_blocks::1024         1024                       # Occupied blocks per task id
system.cpu.dcache.tags.age_task_id_blocks_1024::0           76                       # Occupied blocks per task id
system.cpu.dcache.tags.age_task_id_blocks_1024::1          679                       # Occupied blocks per task id
system.cpu.dcache.tags.age_task_id_blocks_1024::2          269                       # Occupied blocks per task id
system.cpu.dcache.tags.occ_task_id_percent::1024            1                       # Percentage of cache occupancy per task id
system.cpu.dcache.tags.tag_accesses         178025179                       # Number of tag accesses
system.cpu.dcache.tags.data_accesses        178025179                       # Number of data accesses
system.cpu.dcache.tags.power_state.pwrStateResidencyTicks::UNDEFINED 705551024000                       # Cumulative time (in ticks) in various power states
system.cpu.dtb.instHits                             0                       # ITB inst hits
system.cpu.dtb.instMisses                           0                       # ITB inst misses
system.cpu.dtb.readHits                             0                       # DTB read hits
system.cpu.dtb.readMisses                           0                       # DTB read misses
system.cpu.dtb.writeHits                            0                       # DTB write hits
system.cpu.dtb.writeMisses                          0                       # DTB write misses
system.cpu.dtb.inserts                              0                       # Number of times an entry is inserted into the TLB
system.cpu.dtb.flushTlb                             0                       # Number of times complete TLB was flushed
system.cpu.dtb.flushTlbMva                          0                       # Number of times TLB was flushed by MVA
system.cpu.dtb.flushTlbMvaAsid                      0                       # Number of times TLB was flushed by MVA & ASID
system.cpu.dtb.flushTlbAsid                         0                       # Number of times TLB was flushed by ASID
system.cpu.dtb.flushedEntries                       0                       # Number of entries that have been flushed from TLB
system.cpu.dtb.alignFaults                          0                       # Number of TLB faults due to alignment restrictions
system.cpu.dtb.prefetchFaults                       0                       # Number of TLB faults due to prefetch
system.cpu.dtb.domainFaults                         0                       # Number of TLB faults due to domain restrictions
system.cpu.dtb.permsFaults                          0                       # Number of TLB faults due to permissions restrictions
system.cpu.dtb.readAccesses                         0                       # DTB read accesses
system.cpu.dtb.writeAccesses                        0                       # DTB write accesses
system.cpu.dtb.instAccesses                         0                       # ITB inst accesses
system.cpu.dtb.hits                                 0                       # Total TLB (inst and data) hits
system.cpu.dtb.misses                               0                       # Total TLB (inst and data) misses
system.cpu.dtb.accesses                             0                       # Total TLB (inst and data) accesses
system.cpu.dtb.stage2_mmu.stage2_tlb.instHits            0                       # ITB inst hits
system.cpu.dtb.stage2_mmu.stage2_tlb.instMisses            0                       # ITB inst misses
system.cpu.dtb.stage2_mmu.stage2_tlb.readHits            0                       # DTB read hits
system.cpu.dtb.stage2_mmu.stage2_tlb.readMisses            0                       # DTB read misses
system.cpu.dtb.stage2_mmu.stage2_tlb.writeHits            0                       # DTB write hits
system.cpu.dtb.stage2_mmu.stage2_tlb.writeMisses            0                       # DTB write misses
system.cpu.dtb.stage2_mmu.stage2_tlb.inserts            0                       # Number of times an entry is inserted into the TLB
system.cpu.dtb.stage2_mmu.stage2_tlb.flushTlb            0                       # Number of times complete TLB was flushed
system.cpu.dtb.stage2_mmu.stage2_tlb.flushTlbMva            0                       # Number of times TLB was flushed by MVA
system.cpu.dtb.stage2_mmu.stage2_tlb.flushTlbMvaAsid            0                       # Number of times TLB was flushed by MVA & ASID
system.cpu.dtb.stage2_mmu.stage2_tlb.flushTlbAsid            0                       # Number of times TLB was flushed by ASID
system.cpu.dtb.stage2_mmu.stage2_tlb.flushedEntries            0                       # Number of entries that have been flushed from TLB
system.cpu.dtb.stage2_mmu.stage2_tlb.alignFaults            0                       # Number of TLB faults due to alignment restrictions
system.cpu.dtb.stage2_mmu.stage2_tlb.prefetchFaults            0                       # Number of TLB faults due to prefetch
system.cpu.dtb.stage2_mmu.stage2_tlb.domainFaults            0                       # Number of TLB faults due to domain restrictions
system.cpu.dtb.stage2_mmu.stage2_tlb.permsFaults            0                       # Number of TLB faults due to permissions restrictions
system.cpu.dtb.stage2_mmu.stage2_tlb.readAccesses            0                       # DTB read accesses
system.cpu.dtb.stage2_mmu.stage2_tlb.writeAccesses            0                       # DTB write accesses
system.cpu.dtb.stage2_mmu.stage2_tlb.instAccesses            0                       # ITB inst accesses
system.cpu.dtb.stage2_mmu.stage2_tlb.hits            0                       # Total TLB (inst and data) hits
system.cpu.dtb.stage2_mmu.stage2_tlb.misses            0                       # Total TLB (inst and data) misses
system.cpu.dtb.stage2_mmu.stage2_tlb.accesses            0                       # Total TLB (inst and data) accesses
system.cpu.dtb.stage2_mmu.stage2_tlb.walker.walks            0                       # Table walker walks requested
system.cpu.dtb.stage2_mmu.stage2_tlb.walker.requestOrigin_Requested::Data            0                       # Table walker requests started/completed, data/inst
system.cpu.dtb.stage2_mmu.stage2_tlb.walker.requestOrigin_Requested::Inst            0                       # Table walker requests started/completed, data/inst
system.cpu.dtb.stage2_mmu.stage2_tlb.walker.requestOrigin_Requested::total            0                       # Table walker requests started/completed, data/inst
system.cpu.dtb.stage2_mmu.stage2_tlb.walker.requestOrigin_Completed::Data            0                       # Table walker requests started/completed, data/inst
system.cpu.dtb.stage2_mmu.stage2_tlb.walker.requestOrigin_Completed::Inst            0                       # Table walker requests started/completed, data/inst
system.cpu.dtb.stage2_mmu.stage2_tlb.walker.requestOrigin_Completed::total            0                       # Table walker requests started/completed, data/inst
system.cpu.dtb.stage2_mmu.stage2_tlb.walker.requestOrigin::total            0                       # Table walker requests started/completed, data/inst
system.cpu.dtb.stage2_mmu.stage2_tlb.walker.power_state.pwrStateResidencyTicks::UNDEFINED 705551024000                       # Cumulative time (in ticks) in various power states
system.cpu.dtb.walker.walks                         0                       # Table walker walks requested
system.cpu.dtb.walker.requestOrigin_Requested::Data            0                       # Table walker requests started/completed, data/inst
system.cpu.dtb.walker.requestOrigin_Requested::Inst            0                       # Table walker requests started/completed, data/inst
system.cpu.dtb.walker.requestOrigin_Requested::total            0                       # Table walker requests started/completed, data/inst
system.cpu.dtb.walker.requestOrigin_Completed::Data            0                       # Table walker requests started/completed, data/inst
system.cpu.dtb.walker.requestOrigin_Completed::Inst            0                       # Table walker requests started/completed, data/inst
system.cpu.dtb.walker.requestOrigin_Completed::total            0                       # Table walker requests started/completed, data/inst
system.cpu.dtb.walker.requestOrigin::total            0                       # Table walker requests started/completed, data/inst
system.cpu.dtb.walker.power_state.pwrStateResidencyTicks::UNDEFINED 705551024000                       # Cumulative time (in ticks) in various power states
system.cpu.fetch2.intInstructions            45071001                       # Number of integer instructions successfully decoded
system.cpu.fetch2.fpInstructions                    0                       # Number of floating point instructions successfully decoded
system.cpu.fetch2.vecInstructions                   0                       # Number of SIMD instructions successfully decoded
system.cpu.fetch2.loadInstructions            2086414                       # Number of memory load instructions successfully decoded
system.cpu.fetch2.storeInstructions            169120                       # Number of memory store instructions successfully decoded
system.cpu.fetch2.amoInstructions                   0                       # Number of memory atomic instructions successfully decoded
system.cpu.icache.demand_hits::.cpu.inst     32144833                       # number of demand (read+write) hits
system.cpu.icache.demand_hits::total         32144833                       # number of demand (read+write) hits
system.cpu.icache.overall_hits::.cpu.inst     32144833                       # number of overall hits
system.cpu.icache.overall_hits::total        32144833                       # number of overall hits
system.cpu.icache.demand_misses::.cpu.inst          609                       # number of demand (read+write) misses
system.cpu.icache.demand_misses::total            609                       # number of demand (read+write) misses
system.cpu.icache.overall_misses::.cpu.inst          609                       # number of overall misses
system.cpu.icache.overall_misses::total           609                       # number of overall misses
system.cpu.icache.demand_miss_latency::.cpu.inst     62778000                       # number of demand (read+write) miss cycles
system.cpu.icache.demand_miss_latency::total     62778000                       # number of demand (read+write) miss cycles
system.cpu.icache.overall_miss_latency::.cpu.inst     62778000                       # number of overall miss cycles
system.cpu.icache.overall_miss_latency::total     62778000                       # number of overall miss cycles
system.cpu.icache.demand_accesses::.cpu.inst     32145442                       # number of demand (read+write) accesses
system.cpu.icache.demand_accesses::total     32145442                       # number of demand (read+write) accesses
system.cpu.icache.overall_accesses::.cpu.inst     32145442                       # number of overall (read+write) accesses
system.cpu.icache.overall_accesses::total     32145442                       # number of overall (read+write) accesses
system.cpu.icache.demand_miss_rate::.cpu.inst     0.000019                       # miss rate for demand accesses
system.cpu.icache.demand_miss_rate::total     0.000019                       # miss rate for demand accesses
system.cpu.icache.overall_miss_rate::.cpu.inst     0.000019                       # miss rate for overall accesses
system.cpu.icache.overall_miss_rate::total     0.000019                       # miss rate for overall accesses
system.cpu.icache.demand_avg_miss_latency::.cpu.inst 103083.743842                       # average overall miss latency
system.cpu.icache.demand_avg_miss_latency::total 103083.743842                       # average overall miss latency
system.cpu.icache.overall_avg_miss_latency::.cpu.inst 103083.743842                       # average overall miss latency
system.cpu.icache.overall_avg_miss_latency::total 103083.743842                       # average overall miss latency
system.cpu.icache.blocked_cycles::no_mshrs            0                       # number of cycles access was blocked
system.cpu.icache.blocked_cycles::no_targets            0                       # number of cycles access was blocked
system.cpu.icache.blocked::no_mshrs                 0                       # number of cycles access was blocked
system.cpu.icache.blocked::no_targets               0                       # number of cycles access was blocked
system.cpu.icache.avg_blocked_cycles::no_mshrs          nan                       # average number of cycles each access was blocked
system.cpu.icache.avg_blocked_cycles::no_targets          nan                       # average number of cycles each access was blocked
system.cpu.icache.writebacks::.writebacks            3                       # number of writebacks
system.cpu.icache.writebacks::total                 3                       # number of writebacks
system.cpu.icache.demand_mshr_misses::.cpu.inst          609                       # number of demand (read+write) MSHR misses
system.cpu.icache.demand_mshr_misses::total          609                       # number of demand (read+write) MSHR misses
system.cpu.icache.overall_mshr_misses::.cpu.inst          609                       # number of overall MSHR misses
system.cpu.icache.overall_mshr_misses::total          609                       # number of overall MSHR misses
system.cpu.icache.demand_mshr_miss_latency::.cpu.inst     61560000                       # number of demand (read+write) MSHR miss cycles
system.cpu.icache.demand_mshr_miss_latency::total     61560000                       # number of demand (read+write) MSHR miss cycles
system.cpu.icache.overall_mshr_miss_latency::.cpu.inst     61560000                       # number of overall MSHR miss cycles
system.cpu.icache.overall_mshr_miss_latency::total     61560000                       # number of overall MSHR miss cycles
system.cpu.icache.demand_mshr_miss_rate::.cpu.inst     0.000019                       # mshr miss rate for demand accesses
system.cpu.icache.demand_mshr_miss_rate::total     0.000019                       # mshr miss rate for demand accesses
system.cpu.icache.overall_mshr_miss_rate::.cpu.inst     0.000019                       # mshr miss rate for overall accesses
system.cpu.icache.overall_mshr_miss_rate::total     0.000019                       # mshr miss rate for overall accesses
system.cpu.icache.demand_avg_mshr_miss_latency::.cpu.inst 101083.743842                       # average overall mshr miss latency
system.cpu.icache.demand_avg_mshr_miss_latency::total 101083.743842                       # average overall mshr miss latency
system.cpu.icache.overall_avg_mshr_miss_latency::.cpu.inst 101083.743842                       # average overall mshr miss latency
system.cpu.icache.overall_avg_mshr_miss_latency::total 101083.743842                       # average overall mshr miss latency
system.cpu.icache.replacements                      3                       # number of replacements
system.cpu.icache.ReadReq_hits::.cpu.inst     32144833                       # number of ReadReq hits
system.cpu.icache.ReadReq_hits::total        32144833                       # number of ReadReq hits
system.cpu.icache.ReadReq_misses::.cpu.inst          609                       # number of ReadReq misses
system.cpu.icache.ReadReq_misses::total           609                       # number of ReadReq misses
system.cpu.icache.ReadReq_miss_latency::.cpu.inst     62778000                       # number of ReadReq miss cycles
system.cpu.icache.ReadReq_miss_latency::total     62778000                       # number of ReadReq miss cycles
system.cpu.icache.ReadReq_accesses::.cpu.inst     32145442                       # number of ReadReq accesses(hits+misses)
system.cpu.icache.ReadReq_accesses::total     32145442                       # number of ReadReq accesses(hits+misses)
system.cpu.icache.ReadReq_miss_rate::.cpu.inst     0.000019                       # miss rate for ReadReq accesses
system.cpu.icache.ReadReq_miss_rate::total     0.000019                       # miss rate for ReadReq accesses
system.cpu.icache.ReadReq_avg_miss_latency::.cpu.inst 103083.743842                       # average ReadReq miss latency
system.cpu.icache.ReadReq_avg_miss_latency::total 103083.743842                       # average ReadReq miss latency
system.cpu.icache.ReadReq_mshr_misses::.cpu.inst          609                       # number of ReadReq MSHR misses
system.cpu.icache.ReadReq_mshr_misses::total          609                       # number of ReadReq MSHR misses
system.cpu.icache.ReadReq_mshr_miss_latency::.cpu.inst     61560000                       # number of ReadReq MSHR miss cycles
system.cpu.icache.ReadReq_mshr_miss_latency::total     61560000                       # number of ReadReq MSHR miss cycles
system.cpu.icache.ReadReq_mshr_miss_rate::.cpu.inst     0.000019                       # mshr miss rate for ReadReq accesses
system.cpu.icache.ReadReq_mshr_miss_rate::total     0.000019                       # mshr miss rate for ReadReq accesses
system.cpu.icache.ReadReq_avg_mshr_miss_latency::.cpu.inst 101083.743842                       # average ReadReq mshr miss latency
system.cpu.icache.ReadReq_avg_mshr_miss_latency::total 101083.743842                       # average ReadReq mshr miss latency
system.cpu.icache.power_state.pwrStateResidencyTicks::UNDEFINED 705551024000                       # Cumulative time (in ticks) in various power states
system.cpu.icache.tags.tagsinuse           503.505108                       # Cycle average of tags in use
system.cpu.icache.tags.total_refs            32145442                       # Total number of references to valid blocks.
system.cpu.icache.tags.sampled_refs               609                       # Sample count of references to valid blocks.
system.cpu.icache.tags.avg_refs          52783.977011                       # Average number of references to valid blocks.
system.cpu.icache.tags.warmup_cycle            108000                       # Cycle when the warmup percentage was hit.
system.cpu.icache.tags.occ_blocks::.cpu.inst   503.505108                       # Average occupied blocks per requestor
system.cpu.icache.tags.occ_percent::.cpu.inst     0.245852                       # Average percentage of cache occupancy
system.cpu.icache.tags.occ_percent::total     0.245852                       # Average percentage of cache occupancy
system.cpu.icache.tags.occ_task_id_blocks::1024          606                       # Occupied blocks per task id
system.cpu.icache.tags.age_task_id_blocks_1024::4          606                       # Occupied blocks per task id
system.cpu.icache.tags.occ_task_id_percent::1024     0.295898                       # Percentage of cache occupancy per task id
system.cpu.icache.tags.tag_accesses          64291493                       # Number of tag accesses
system.cpu.icache.tags.data_accesses         64291493                       # Number of data accesses
system.cpu.icache.tags.power_state.pwrStateResidencyTicks::UNDEFINED 705551024000                       # Cumulative time (in ticks) in various power states
system.cpu.itb.instHits                             0                       # ITB inst hits
system.cpu.itb.instMisses                           0                       # ITB inst misses
system.cpu.itb.readHits                             0                       # DTB read hits
system.cpu.itb.readMisses                           0                       # DTB read misses
system.cpu.itb.writeHits                            0                       # DTB write hits
system.cpu.itb.writeMisses                          0                       # DTB write misses
system.cpu.itb.inserts                              0                       # Number of times an entry is inserted into the TLB
system.cpu.itb.flushTlb                             0                       # Number of times complete TLB was flushed
system.cpu.itb.flushTlbMva                          0                       # Number of times TLB was flushed by MVA
system.cpu.itb.flushTlbMvaAsid                      0                       # Number of times TLB was flushed by MVA & ASID
system.cpu.itb.flushTlbAsid                         0                       # Number of times TLB was flushed by ASID
system.cpu.itb.flushedEntries                       0                       # Number of entries that have been flushed from TLB
system.cpu.itb.alignFaults                          0                       # Number of TLB faults due to alignment restrictions
system.cpu.itb.prefetchFaults                       0                       # Number of TLB faults due to prefetch
system.cpu.itb.domainFaults                         0                       # Number of TLB faults due to domain restrictions
system.cpu.itb.permsFaults                          0                       # Number of TLB faults due to permissions restrictions
system.cpu.itb.readAccesses                         0                       # DTB read accesses
system.cpu.itb.writeAccesses                        0                       # DTB write accesses
system.cpu.itb.instAccesses                         0                       # ITB inst accesses
system.cpu.itb.hits                                 0                       # Total TLB (inst and data) hits
system.cpu.itb.misses                               0                       # Total TLB (inst and data) misses
system.cpu.itb.accesses                             0                       # Total TLB (inst and data) accesses
system.cpu.itb.stage2_mmu.stage2_tlb.instHits            0                       # ITB inst hits
system.cpu.itb.stage2_mmu.stage2_tlb.instMisses            0                       # ITB inst misses
system.cpu.itb.stage2_mmu.stage2_tlb.readHits            0                       # DTB read hits
system.cpu.itb.stage2_mmu.stage2_tlb.readMisses            0                       # DTB read misses
system.cpu.itb.stage2_mmu.stage2_tlb.writeHits            0                       # DTB write hits
system.cpu.itb.stage2_mmu.stage2_tlb.writeMisses            0                       # DTB write misses
system.cpu.itb.stage2_mmu.stage2_tlb.inserts            0                       # Number of times an entry is inserted into the TLB
system.cpu.itb.stage2_mmu.stage2_tlb.flushTlb            0                       # Number of times complete TLB was flushed
system.cpu.itb.stage2_mmu.stage2_tlb.flushTlbMva            0                       # Number of times TLB was flushed by MVA
system.cpu.itb.stage2_mmu.stage2_tlb.flushTlbMvaAsid            0                       # Number of times TLB was flushed by MVA & ASID
system.cpu.itb.stage2_mmu.stage2_tlb.flushTlbAsid            0                       # Number of times TLB was flushed by ASID
system.cpu.itb.stage2_mmu.stage2_tlb.flushedEntries            0                       # Number of entries that have been flushed from TLB
system.cpu.itb.stage2_mmu.stage2_tlb.alignFaults            0                       # Number of TLB faults due to alignment restrictions
system.cpu.itb.stage2_mmu.stage2_tlb.prefetchFaults            0                       # Number of TLB faults due to prefetch
system.cpu.itb.stage2_mmu.stage2_tlb.domainFaults            0                       # Number of TLB faults due to domain restrictions
system.cpu.itb.stage2_mmu.stage2_tlb.permsFaults            0                       # Number of TLB faults due to permissions restrictions
system.cpu.itb.stage2_mmu.stage2_tlb.readAccesses            0                       # DTB read accesses
system.cpu.itb.stage2_mmu.stage2_tlb.writeAccesses            0                       # DTB write accesses
system.cpu.itb.stage2_mmu.stage2_tlb.instAccesses            0                       # ITB inst accesses
system.cpu.itb.stage2_mmu.stage2_tlb.hits            0                       # Total TLB (inst and data) hits
system.cpu.itb.stage2_mmu.stage2_tlb.misses            0                       # Total TLB (inst and data) misses
system.cpu.itb.stage2_mmu.stage2_tlb.accesses            0                       # Total TLB (inst and data) accesses
system.cpu.itb.stage2_mmu.stage2_tlb.walker.walks            0                       # Table walker walks requested
system.cpu.itb.stage2_mmu.stage2_tlb.walker.requestOrigin_Requested::Data            0                       # Table walker requests started/completed, data/inst
system.cpu.itb.stage2_mmu.stage2_tlb.walker.requestOrigin_Requested::Inst            0                       # Table walker requests started/completed, data/inst
system.cpu.itb.stage2_mmu.stage2_tlb.walker.requestOrigin_Requested::total            0                       # Table walker requests started/completed, data/inst
system.cpu.itb.stage2_mmu.stage2_tlb.walker.requestOrigin_Completed::Data            0                       # Table walker requests started/completed, data/inst
system.cpu.itb.stage2_mmu.stage2_tlb.walker.requestOrigin_Completed::Inst            0                       # Table walker requests started/completed, data/inst
system.cpu.itb.stage2_mmu.stage2_tlb.walker.requestOrigin_Completed::total            0                       # Table walker requests started/completed, data/inst
system.cpu.itb.stage2_mmu.stage2_tlb.walker.requestOrigin::total            0                       # Table walker requests started/completed, data/inst
system.cpu.itb.stage2_mmu.stage2_tlb.walker.power_state.pwrStateResidencyTicks::UNDEFINED 705551024000                       # Cumulative time (in ticks) in various power states
system.cpu.itb.walker.walks                         0                       # Table walker walks requested
system.cpu.itb.walker.requestOrigin_Requested::Data            0                       # Table walker requests started/completed, data/inst
system.cpu.itb.walker.requestOrigin_Requested::Inst            0                       # Table walker requests started/completed, data/inst
system.cpu.itb.walker.requestOrigin_Requested::total            0                       # Table walker requests started/completed, data/inst
system.cpu.itb.walker.requestOrigin_Completed::Data            0                       # Table walker requests started/completed, data/inst
system.cpu.itb.walker.requestOrigin_Completed::Inst            0                       # Table walker requests started/completed, data/inst
system.cpu.itb.walker.requestOrigin_Completed::total            0                       # Table walker requests started/completed, data/inst
system.cpu.itb.walker.requestOrigin::total            0                       # Table walker requests started/completed, data/inst
system.cpu.itb.walker.power_state.pwrStateResidencyTicks::UNDEFINED 705551024000                       # Cumulative time (in ticks) in various power states
system.cpu.power_state.pwrStateResidencyTicks::ON 705551024000                       # Cumulative time (in ticks) in various power states
system.cpu.thread_0.numInsts                100000000                       # Number of Instructions committed
system.cpu.thread_0.numOps                  184218810                       # Number of Ops committed
system.cpu.thread_0.numMemRefs                      0                       # Number of Memory References
system.cpu_clk_domain.clock                      1000                       # Clock period in ticks
system.cpu_voltage_domain.voltage                   1                       # Voltage in Volts
system.l2.demand_hits::.cpu.inst                   20                       # number of demand (read+write) hits
system.l2.demand_hits::.cpu.data                   61                       # number of demand (read+write) hits
system.l2.demand_hits::total                       81                       # number of demand (read+write) hits
system.l2.overall_hits::.cpu.inst                  20                       # number of overall hits
system.l2.overall_hits::.cpu.data                  61                       # number of overall hits
system.l2.overall_hits::total                      81                       # number of overall hits
system.l2.demand_misses::.cpu.inst                589                       # number of demand (read+write) misses
system.l2.demand_misses::.cpu.data            5263311                       # number of demand (read+write) misses
system.l2.demand_misses::total                5263900                       # number of demand (read+write) misses
system.l2.overall_misses::.cpu.inst               589                       # number of overall misses
system.l2.overall_misses::.cpu.data           5263311                       # number of overall misses
system.l2.overall_misses::total               5263900                       # number of overall misses
system.l2.demand_miss_latency::.cpu.inst     59274000                       # number of demand (read+write) miss cycles
system.l2.demand_miss_latency::.cpu.data 525890183000                       # number of demand (read+write) miss cycles
system.l2.demand_miss_latency::total     525949457000                       # number of demand (read+write) miss cycles
system.l2.overall_miss_latency::.cpu.inst     59274000                       # number of overall miss cycles
system.l2.overall_miss_latency::.cpu.data 525890183000                       # number of overall miss cycles
system.l2.overall_miss_latency::total    525949457000                       # number of overall miss cycles
system.l2.demand_accesses::.cpu.inst              609                       # number of demand (read+write) accesses
system.l2.demand_accesses::.cpu.data          5263372                       # number of demand (read+write) accesses
system.l2.demand_accesses::total              5263981                       # number of demand (read+write) accesses
system.l2.overall_accesses::.cpu.inst             609                       # number of overall (read+write) accesses
system.l2.overall_accesses::.cpu.data         5263372                       # number of overall (read+write) accesses
system.l2.overall_accesses::total             5263981                       # number of overall (read+write) accesses
system.l2.demand_miss_rate::.cpu.inst        0.967159                       # miss rate for demand accesses
system.l2.demand_miss_rate::.cpu.data        0.999988                       # miss rate for demand accesses
system.l2.demand_miss_rate::total            0.999985                       # miss rate for demand accesses
system.l2.overall_miss_rate::.cpu.inst       0.967159                       # miss rate for overall accesses
system.l2.overall_miss_rate::.cpu.data       0.999988                       # miss rate for overall accesses
system.l2.overall_miss_rate::total           0.999985                       # miss rate for overall accesses
system.l2.demand_avg_miss_latency::.cpu.inst 100634.974533                       # average overall miss latency
system.l2.demand_avg_miss_latency::.cpu.data 99916.228207                       # average overall miss latency
system.l2.demand_avg_miss_latency::total 99916.308630                       # average overall miss latency
system.l2.overall_avg_miss_latency::.cpu.inst 100634.974533                       # average overall miss latency
system.l2.overall_avg_miss_latency::.cpu.data 99916.228207                       # average overall miss latency
system.l2.overall_avg_miss_latency::total 99916.308630                       # average overall miss latency
system.l2.blocked_cycles::no_mshrs                  0                       # number of cycles access was blocked
system.l2.blocked_cycles::no_targets                0                       # number of cycles access was blocked
system.l2.blocked::no_mshrs                         0                       # number of cycles access was blocked
system.l2.blocked::no_targets                       0                       # number of cycles access was blocked
system.l2.avg_blocked_cycles::no_mshrs            nan                       # average number of cycles each access was blocked
system.l2.avg_blocked_cycles::no_targets          nan                       # average number of cycles each access was blocked
system.l2.writebacks::.writebacks             5254860                       # number of writebacks
system.l2.writebacks::total                   5254860                       # number of writebacks
system.l2.demand_mshr_hits::.cpu.inst               1                       # number of demand (read+write) MSHR hits
system.l2.demand_mshr_hits::.cpu.data               6                       # number of demand (read+write) MSHR hits
system.l2.demand_mshr_hits::total                   7                       # number of demand (read+write) MSHR hits
system.l2.overall_mshr_hits::.cpu.inst              1                       # number of overall MSHR hits
system.l2.overall_mshr_hits::.cpu.data              6                       # number of overall MSHR hits
system.l2.overall_mshr_hits::total                  7                       # number of overall MSHR hits
system.l2.demand_mshr_misses::.cpu.inst           588                       # number of demand (read+write) MSHR misses
system.l2.demand_mshr_misses::.cpu.data       5263305                       # number of demand (read+write) MSHR misses
system.l2.demand_mshr_misses::total           5263893                       # number of demand (read+write) MSHR misses
system.l2.overall_mshr_misses::.cpu.inst          588                       # number of overall MSHR misses
system.l2.overall_mshr_misses::.cpu.data      5263305                       # number of overall MSHR misses
system.l2.overall_mshr_misses::total          5263893                       # number of overall MSHR misses
system.l2.demand_mshr_miss_latency::.cpu.inst     47435000                       # number of demand (read+write) MSHR miss cycles
system.l2.demand_mshr_miss_latency::.cpu.data 420623602000                       # number of demand (read+write) MSHR miss cycles
system.l2.demand_mshr_miss_latency::total 420671037000                       # number of demand (read+write) MSHR miss cycles
system.l2.overall_mshr_miss_latency::.cpu.inst     47435000                       # number of overall MSHR miss cycles
system.l2.overall_mshr_miss_latency::.cpu.data 420623602000                       # number of overall MSHR miss cycles
system.l2.overall_mshr_miss_latency::total 420671037000                       # number of overall MSHR miss cycles
system.l2.demand_mshr_miss_rate::.cpu.inst     0.965517                       # mshr miss rate for demand accesses
system.l2.demand_mshr_miss_rate::.cpu.data     0.999987                       # mshr miss rate for demand accesses
system.l2.demand_mshr_miss_rate::total       0.999983                       # mshr miss rate for demand accesses
system.l2.overall_mshr_miss_rate::.cpu.inst     0.965517                       # mshr miss rate for overall accesses
system.l2.overall_mshr_miss_rate::.cpu.data     0.999987                       # mshr miss rate for overall accesses
system.l2.overall_mshr_miss_rate::total      0.999983                       # mshr miss rate for overall accesses
system.l2.demand_avg_mshr_miss_latency::.cpu.inst 80671.768707                       # average overall mshr miss latency
system.l2.demand_avg_mshr_miss_latency::.cpu.data 79916.250721                       # average overall mshr miss latency
system.l2.demand_avg_mshr_miss_latency::total 79916.335115                       # average overall mshr miss latency
system.l2.overall_avg_mshr_miss_latency::.cpu.inst 80671.768707                       # average overall mshr miss latency
system.l2.overall_avg_mshr_miss_latency::.cpu.data 79916.250721                       # average overall mshr miss latency
system.l2.overall_avg_mshr_miss_latency::total 79916.335115                       # average overall mshr miss latency
system.l2.replacements                        5255700                       # number of replacements
system.l2.WritebackDirty_hits::.writebacks      5262054                       # number of WritebackDirty hits
system.l2.WritebackDirty_hits::total          5262054                       # number of WritebackDirty hits
system.l2.WritebackDirty_accesses::.writebacks      5262054                       # number of WritebackDirty accesses(hits+misses)
system.l2.WritebackDirty_accesses::total      5262054                       # number of WritebackDirty accesses(hits+misses)
system.l2.WritebackClean_hits::.writebacks            3                       # number of WritebackClean hits
system.l2.WritebackClean_hits::total                3                       # number of WritebackClean hits
system.l2.WritebackClean_accesses::.writebacks            3                       # number of WritebackClean accesses(hits+misses)
system.l2.WritebackClean_accesses::total            3                       # number of WritebackClean accesses(hits+misses)
system.l2.ReadExReq_hits::.cpu.data                13                       # number of ReadExReq hits
system.l2.ReadExReq_hits::total                    13                       # number of ReadExReq hits
system.l2.ReadExReq_misses::.cpu.data         5263024                       # number of ReadExReq misses
system.l2.ReadExReq_misses::total             5263024                       # number of ReadExReq misses
system.l2.ReadExReq_miss_latency::.cpu.data 525859514000                       # number of ReadExReq miss cycles
system.l2.ReadExReq_miss_latency::total  525859514000                       # number of ReadExReq miss cycles
system.l2.ReadExReq_accesses::.cpu.data       5263037                       # number of ReadExReq accesses(hits+misses)
system.l2.ReadExReq_accesses::total           5263037                       # number of ReadExReq accesses(hits+misses)
system.l2.ReadExReq_miss_rate::.cpu.data     0.999998                       # miss rate for ReadExReq accesses
system.l2.ReadExReq_miss_rate::total         0.999998                       # miss rate for ReadExReq accesses
system.l2.ReadExReq_avg_miss_latency::.cpu.data 99915.849519                       # average ReadExReq miss latency
system.l2.ReadExReq_avg_miss_latency::total 99915.849519                       # average ReadExReq miss latency
system.l2.ReadExReq_mshr_misses::.cpu.data      5263024                       # number of ReadExReq MSHR misses
system.l2.ReadExReq_mshr_misses::total        5263024                       # number of ReadExReq MSHR misses
system.l2.ReadExReq_mshr_miss_latency::.cpu.data 420599054000                       # number of ReadExReq MSHR miss cycles
system.l2.ReadExReq_mshr_miss_latency::total 420599054000                       # number of ReadExReq MSHR miss cycles
system.l2.ReadExReq_mshr_miss_rate::.cpu.data     0.999998                       # mshr miss rate for ReadExReq accesses
system.l2.ReadExReq_mshr_miss_rate::total     0.999998                       # mshr miss rate for ReadExReq accesses
system.l2.ReadExReq_avg_mshr_miss_latency::.cpu.data 79915.853319                       # average ReadExReq mshr miss latency
system.l2.ReadExReq_avg_mshr_miss_latency::total 79915.853319                       # average ReadExReq mshr miss latency
system.l2.ReadCleanReq_hits::.cpu.inst             20                       # number of ReadCleanReq hits
system.l2.ReadCleanReq_hits::total                 20                       # number of ReadCleanReq hits
system.l2.ReadCleanReq_misses::.cpu.inst          589                       # number of ReadCleanReq misses
system.l2.ReadCleanReq_misses::total              589                       # number of ReadCleanReq misses
system.l2.ReadCleanReq_miss_latency::.cpu.inst     59274000                       # number of ReadCleanReq miss cycles
system.l2.ReadCleanReq_miss_latency::total     59274000                       # number of ReadCleanReq miss cycles
system.l2.ReadCleanReq_accesses::.cpu.inst          609                       # number of ReadCleanReq accesses(hits+misses)
system.l2.ReadCleanReq_accesses::total            609                       # number of ReadCleanReq accesses(hits+misses)
system.l2.ReadCleanReq_miss_rate::.cpu.inst     0.967159                       # miss rate for ReadCleanReq accesses
system.l2.ReadCleanReq_miss_rate::total      0.967159                       # miss rate for ReadCleanReq accesses
system.l2.ReadCleanReq_avg_miss_latency::.cpu.inst 100634.974533                       # average ReadCleanReq miss latency
system.l2.ReadCleanReq_avg_miss_latency::total 100634.974533                       # average ReadCleanReq miss latency
system.l2.ReadCleanReq_mshr_hits::.cpu.inst            1                       # number of ReadCleanReq MSHR hits
system.l2.ReadCleanReq_mshr_hits::total             1                       # number of ReadCleanReq MSHR hits
system.l2.ReadCleanReq_mshr_misses::.cpu.inst          588                       # number of ReadCleanReq MSHR misses
system.l2.ReadCleanReq_mshr_misses::total          588                       # number of ReadCleanReq MSHR misses
system.l2.ReadCleanReq_mshr_miss_latency::.cpu.inst     47435000                       # number of ReadCleanReq MSHR miss cycles
system.l2.ReadCleanReq_mshr_miss_latency::total     47435000                       # number of ReadCleanReq MSHR miss cycles
system.l2.ReadCleanReq_mshr_miss_rate::.cpu.inst     0.965517                       # mshr miss rate for ReadCleanReq accesses
system.l2.ReadCleanReq_mshr_miss_rate::total     0.965517                       # mshr miss rate for ReadCleanReq accesses
system.l2.ReadCleanReq_avg_mshr_miss_latency::.cpu.inst 80671.768707                       # average ReadCleanReq mshr miss latency
system.l2.ReadCleanReq_avg_mshr_miss_latency::total 80671.768707                       # average ReadCleanReq mshr miss latency
system.l2.ReadSharedReq_hits::.cpu.data            48                       # number of ReadSharedReq hits
system.l2.ReadSharedReq_hits::total                48                       # number of ReadSharedReq hits
system.l2.ReadSharedReq_misses::.cpu.data          287                       # number of ReadSharedReq misses
system.l2.ReadSharedReq_misses::total             287                       # number of ReadSharedReq misses
system.l2.ReadSharedReq_miss_latency::.cpu.data     30669000                       # number of ReadSharedReq miss cycles
system.l2.ReadSharedReq_miss_latency::total     30669000                       # number of ReadSharedReq miss cycles
system.l2.ReadSharedReq_accesses::.cpu.data          335                       # number of ReadSharedReq accesses(hits+misses)
system.l2.ReadSharedReq_accesses::total           335                       # number of ReadSharedReq accesses(hits+misses)
system.l2.ReadSharedReq_miss_rate::.cpu.data     0.856716                       # miss rate for ReadSharedReq accesses
system.l2.ReadSharedReq_miss_rate::total     0.856716                       # miss rate for ReadSharedReq accesses
system.l2.ReadSharedReq_avg_miss_latency::.cpu.data 106860.627178                       # average ReadSharedReq miss latency
system.l2.ReadSharedReq_avg_miss_latency::total 106860.627178                       # average ReadSharedReq miss latency
system.l2.ReadSharedReq_mshr_hits::.cpu.data            6                       # number of ReadSharedReq MSHR hits
system.l2.ReadSharedReq_mshr_hits::total            6                       # number of ReadSharedReq MSHR hits
system.l2.ReadSharedReq_mshr_misses::.cpu.data          281                       # number of ReadSharedReq MSHR misses
system.l2.ReadSharedReq_mshr_misses::total          281                       # number of ReadSharedReq MSHR misses
system.l2.ReadSharedReq_mshr_miss_latency::.cpu.data     24548000                       # number of ReadSharedReq MSHR miss cycles
system.l2.ReadSharedReq_mshr_miss_latency::total     24548000                       # number of ReadSharedReq MSHR miss cycles
system.l2.ReadSharedReq_mshr_miss_rate::.cpu.data     0.838806                       # mshr miss rate for ReadSharedReq accesses
system.l2.ReadSharedReq_mshr_miss_rate::total     0.838806                       # mshr miss rate for ReadSharedReq accesses
system.l2.ReadSharedReq_avg_mshr_miss_latency::.cpu.data 87359.430605                       # average ReadSharedReq mshr miss latency
system.l2.ReadSharedReq_avg_mshr_miss_latency::total 87359.430605                       # average ReadSharedReq mshr miss latency
system.l2.power_state.pwrStateResidencyTicks::UNDEFINED 705551024000                       # Cumulative time (in ticks) in various power states
system.l2.tags.tagsinuse                  8139.245858                       # Cycle average of tags in use
system.l2.tags.total_refs                    10526266                       # Total number of references to valid blocks.
system.l2.tags.sampled_refs                   5263892                       # Sample count of references to valid blocks.
system.l2.tags.avg_refs                      1.999712                       # Average number of references to valid blocks.
system.l2.tags.warmup_cycle                     87000                       # Cycle when the warmup percentage was hit.
system.l2.tags.occ_blocks::.cpu.inst         3.504679                       # Average occupied blocks per requestor
system.l2.tags.occ_blocks::.cpu.data      8135.741179                       # Average occupied blocks per requestor
system.l2.tags.occ_percent::.cpu.inst        0.000428                       # Average percentage of cache occupancy
system.l2.tags.occ_percent::.cpu.data        0.993132                       # Average percentage of cache occupancy
system.l2.tags.occ_percent::total            0.993560                       # Average percentage of cache occupancy
system.l2.tags.occ_task_id_blocks::1024          8192                       # Occupied blocks per task id
system.l2.tags.age_task_id_blocks_1024::0           76                       # Occupied blocks per task id
system.l2.tags.age_task_id_blocks_1024::1          679                       # Occupied blocks per task id
system.l2.tags.age_task_id_blocks_1024::2         6780                       # Occupied blocks per task id
system.l2.tags.age_task_id_blocks_1024::3          657                       # Occupied blocks per task id
system.l2.tags.occ_task_id_percent::1024            1                       # Percentage of cache occupancy per task id
system.l2.tags.tag_accesses                  47368988                       # Number of tag accesses
system.l2.tags.data_accesses                 47368988                       # Number of data accesses
system.l2.tags.power_state.pwrStateResidencyTicks::UNDEFINED 705551024000                       # Cumulative time (in ticks) in various power states
system.mem_ctrls.avgPriority_.writebacks::samples   5254860.00                       # Average QoS priority value for accepted requests
system.mem_ctrls.avgPriority_.cpu.inst::samples       588.00                       # Average QoS priority value for accepted requests
system.mem_ctrls.avgPriority_.cpu.data::samples   5263304.00                       # Average QoS priority value for accepted requests
system.mem_ctrls.priorityMinLatency      0.000000018750                       # per QoS priority minimum request to response latency (s)
system.mem_ctrls.priorityMaxLatency      0.000824808500                       # per QoS priority maximum request to response latency (s)
system.mem_ctrls.numReadWriteTurnArounds       327947                       # Number of turnarounds from READ to WRITE
system.mem_ctrls.numWriteReadTurnArounds       327947                       # Number of turnarounds from WRITE to READ
system.mem_ctrls.numStayReadState            15633362                       # Number of times bus staying in READ state
system.mem_ctrls.numStayWriteState            4926926                       # Number of times bus staying in WRITE state
system.mem_ctrls.readReqs                     5263892                       # Number of read requests accepted
system.mem_ctrls.writeReqs                    5254860                       # Number of write requests accepted
system.mem_ctrls.readBursts                   5263892                       # Number of controller read bursts, including those serviced by the write queue
system.mem_ctrls.writeBursts                  5254860                       # Number of controller write bursts, including those merged in the write queue
system.mem_ctrls.servicedByWrQ                      0                       # Number of controller read bursts serviced by the write queue
system.mem_ctrls.mergedWrBursts                     0                       # Number of controller write bursts merged with an existing one
system.mem_ctrls.neitherReadNorWriteReqs            0                       # Number of requests that are neither read nor write
system.mem_ctrls.avgRdQLen                       1.00                       # Average read queue length when enqueuing
system.mem_ctrls.avgWrQLen                      25.55                       # Average write queue length when enqueuing
system.mem_ctrls.numRdRetry                         0                       # Number of times read queue was full causing retry
system.mem_ctrls.numWrRetry                         0                       # Number of times write queue was full causing retry
system.mem_ctrls.readPktSize::0                     0                       # Read request sizes (log2)
system.mem_ctrls.readPktSize::1                     0                       # Read request sizes (log2)
system.mem_ctrls.readPktSize::2                     0                       # Read request sizes (log2)
system.mem_ctrls.readPktSize::3                     0                       # Read request sizes (log2)
system.mem_ctrls.readPktSize::4                     0                       # Read request sizes (log2)
system.mem_ctrls.readPktSize::5                     0                       # Read request sizes (log2)
system.mem_ctrls.readPktSize::6               5263892                       # Read request sizes (log2)
system.mem_ctrls.writePktSize::0                    0                       # Write request sizes (log2)
system.mem_ctrls.writePktSize::1                    0                       # Write request sizes (log2)
system.mem_ctrls.writePktSize::2                    0                       # Write request sizes (log2)
system.mem_ctrls.writePktSize::3                    0                       # Write request sizes (log2)
system.mem_ctrls.writePktSize::4                    0                       # Write request sizes (log2)
system.mem_ctrls.writePktSize::5                    0                       # Write request sizes (log2)
system.mem_ctrls.writePktSize::6              5254860                       # Write request sizes (log2)
system.mem_ctrls.rdQLenPdf::0                 5263658                       # What read queue length does an incoming req see
system.mem_ctrls.rdQLenPdf::1                     212                       # What read queue length does an incoming req see
system.mem_ctrls.rdQLenPdf::2                      22                       # What read queue length does an incoming req see
system.mem_ctrls.rdQLenPdf::3                       0                       # What read queue length does an incoming req see
system.mem_ctrls.rdQLenPdf::4                       0                       # What read queue length does an incoming req see
system.mem_ctrls.rdQLenPdf::5                       0                       # What read queue length does an incoming req see
system.mem_ctrls.rdQLenPdf::6                       0                       # What read queue length does an incoming req see
system.mem_ctrls.rdQLenPdf::7                       0                       # What read queue length does an incoming req see
system.mem_ctrls.rdQLenPdf::8                       0                       # What read queue length does an incoming req see
system.mem_ctrls.rdQLenPdf::9                       0                       # What read queue length does an incoming req see
system.mem_ctrls.rdQLenPdf::10                      0                       # What read queue length does an incoming req see
system.mem_ctrls.rdQLenPdf::11                      0                       # What read queue length does an incoming req see
[...]
system.mem_ctrls.dram.bw_write::.writebacks    476664378                       # Write bandwidth from this memory (bytes/s)
system.mem_ctrls.dram.bw_write::total       476664378                       # Write bandwidth from this memory (bytes/s)
system.mem_ctrls.dram.bw_total::.writebacks    476664378                       # Total bandwidth to/from this memory (bytes/s)
system.mem_ctrls.dram.bw_total::.cpu.inst        53337                       # Total bandwidth to/from this memory (bytes/s)
system.mem_ctrls.dram.bw_total::.cpu.data    477430327                       # Total bandwidth to/from this memory (bytes/s)
system.mem_ctrls.dram.bw_total::total       954148042                       # Total bandwidth to/from this memory (bytes/s)
system.mem_ctrls.dram.readBursts              5263892                       # Number of DRAM read bursts
system.mem_ctrls.dram.writeBursts             5254832                       # Number of DRAM write bursts
system.mem_ctrls.dram.perBankRdBursts::0       328922                       # Per bank write bursts
system.mem_ctrls.dram.perBankRdBursts::1       329088                       # Per bank write bursts
system.mem_ctrls.dram.perBankRdBursts::2       329059                       # Per bank write bursts
system.mem_ctrls.dram.perBankRdBursts::3       329078                       # Per bank write bursts
system.mem_ctrls.dram.perBankRdBursts::4       328991                       # Per bank write bursts
system.mem_ctrls.dram.perBankRdBursts::5       329077                       # Per bank write bursts
system.mem_ctrls.dram.perBankRdBursts::6       329081                       # Per bank write bursts
system.mem_ctrls.dram.perBankRdBursts::7       329025                       # Per bank write bursts
system.mem_ctrls.dram.perBankRdBursts::8       328902                       # Per bank write bursts
system.mem_ctrls.dram.perBankRdBursts::9       328864                       # Per bank write bursts
system.mem_ctrls.dram.perBankRdBursts::10       328904                       # Per bank write bursts
system.mem_ctrls.dram.perBankRdBursts::11       328922                       # Per bank write bursts
system.mem_ctrls.dram.perBankRdBursts::12       329020                       # Per bank write bursts
system.mem_ctrls.dram.perBankRdBursts::13       329023                       # Per bank write bursts
system.mem_ctrls.dram.perBankRdBursts::14       328993                       # Per bank write bursts
system.mem_ctrls.dram.perBankRdBursts::15       328943                       # Per bank write bursts
system.mem_ctrls.dram.perBankWrBursts::0       328325                       # Per bank write bursts
system.mem_ctrls.dram.perBankWrBursts::1       328477                       # Per bank write bursts
system.mem_ctrls.dram.perBankWrBursts::2       328464                       # Per bank write bursts
system.mem_ctrls.dram.perBankWrBursts::3       328542                       # Per bank write bursts
system.mem_ctrls.dram.perBankWrBursts::4       328462                       # Per bank write bursts
system.mem_ctrls.dram.perBankWrBursts::5       328521                       # Per bank write bursts
system.mem_ctrls.dram.perBankWrBursts::6       328522                       # Per bank write bursts
system.mem_ctrls.dram.perBankWrBursts::7       328494                       # Per bank write bursts
system.mem_ctrls.dram.perBankWrBursts::8       328321                       # Per bank write bursts
system.mem_ctrls.dram.perBankWrBursts::9       328320                       # Per bank write bursts
system.mem_ctrls.dram.perBankWrBursts::10       328320                       # Per bank write bursts
system.mem_ctrls.dram.perBankWrBursts::11       328375                       # Per bank write bursts
system.mem_ctrls.dram.perBankWrBursts::12       328449                       # Per bank write bursts
system.mem_ctrls.dram.perBankWrBursts::13       328442                       # Per bank write bursts
system.mem_ctrls.dram.perBankWrBursts::14       328397                       # Per bank write bursts
system.mem_ctrls.dram.perBankWrBursts::15       328401                       # Per bank write bursts
system.mem_ctrls.dram.totQLat             52136365500                       # Total ticks spent queuing
system.mem_ctrls.dram.totBusLat           26319460000                       # Total ticks spent in databus transfers
system.mem_ctrls.dram.totMemAccLat       150834340500                       # Total ticks spent from burst creation until serviced by the DRAM
system.mem_ctrls.dram.avgQLat                 9904.53                       # Average queueing delay per DRAM burst
system.mem_ctrls.dram.avgBusLat               5000.00                       # Average bus latency per DRAM burst
system.mem_ctrls.dram.avgMemAccLat           28654.53                       # Average memory access latency per DRAM burst
system.mem_ctrls.dram.readRowHits             4807840                       # Number of row buffer hits during reads
system.mem_ctrls.dram.writeRowHits            4886903                       # Number of row buffer hits during writes
system.mem_ctrls.dram.readRowHitRate            91.34                       # Row buffer hit rate for reads
system.mem_ctrls.dram.writeRowHitRate           93.00                       # Row buffer hit rate for writes
system.mem_ctrls.dram.bytesPerActivate::samples       823980                       # Bytes accessed per row activation
system.mem_ctrls.dram.bytesPerActivate::mean   817.007248                       # Bytes accessed per row activation
system.mem_ctrls.dram.bytesPerActivate::gmean   683.468729                       # Bytes accessed per row activation
system.mem_ctrls.dram.bytesPerActivate::stdev   323.604914                       # Bytes accessed per row activation
system.mem_ctrls.dram.bytesPerActivate::0-127        41161      5.00%      5.00% # Bytes accessed per row activation
system.mem_ctrls.dram.bytesPerActivate::128-255        42783      5.19%     10.19% # Bytes accessed per row activation
system.mem_ctrls.dram.bytesPerActivate::256-383        41705      5.06%     15.25% # Bytes accessed per row activation
system.mem_ctrls.dram.bytesPerActivate::384-511        37568      4.56%     19.81% # Bytes accessed per row activation
system.mem_ctrls.dram.bytesPerActivate::512-639        22939      2.78%     22.59% # Bytes accessed per row activation
system.mem_ctrls.dram.bytesPerActivate::640-767        42854      5.20%     27.79% # Bytes accessed per row activation
system.mem_ctrls.dram.bytesPerActivate::768-895        35120      4.26%     32.06% # Bytes accessed per row activation
system.mem_ctrls.dram.bytesPerActivate::896-1023        52152      6.33%     38.38% # Bytes accessed per row activation
system.mem_ctrls.dram.bytesPerActivate::1024-1151       507698     61.62%    100.00% # Bytes accessed per row activation
system.mem_ctrls.dram.bytesPerActivate::total       823980                       # Bytes accessed per row activation
system.mem_ctrls.dram.bytesRead             336889088                       # Total number of bytes read from DRAM
system.mem_ctrls.dram.bytesWritten          336309248                       # Total number of bytes written to DRAM
system.mem_ctrls.dram.avgRdBW              477.483664                       # Average DRAM read bandwidth in MiBytes/s
system.mem_ctrls.dram.avgWrBW              476.661838                       # Average DRAM write bandwidth in MiBytes/s
system.mem_ctrls.dram.peakBW                 12800.00                       # Theoretical peak bandwidth in MiByte/s
system.mem_ctrls.dram.busUtil                    7.45                       # Data bus utilization in percentage
system.mem_ctrls.dram.busUtilRead                3.73                       # Data bus utilization in percentage for reads
system.mem_ctrls.dram.busUtilWrite               3.72                       # Data bus utilization in percentage for writes
system.mem_ctrls.dram.pageHitRate               92.17                       # Row buffer hit rate, read and write combined
system.mem_ctrls.dram.power_state.pwrStateResidencyTicks::UNDEFINED 705551024000                       # Cumulative time (in ticks) in various power states
system.mem_ctrls.dram.rank0.actEnergy      2941658580                       # Energy for activate commands per rank (pJ)
system.mem_ctrls.dram.rank0.preEnergy      1563524820                       # Energy for precharge commands per rank (pJ)
system.mem_ctrls.dram.rank0.readEnergy    18794771940                       # Energy for read commands per rank (pJ)
system.mem_ctrls.dram.rank0.writeEnergy   13717152540                       # Energy for write commands per rank (pJ)
system.mem_ctrls.dram.rank0.refreshEnergy 55694988960.000008                       # Energy for refresh commands per rank (pJ)
system.mem_ctrls.dram.rank0.actBackEnergy 166183356930                       # Energy for active background per rank (pJ)
system.mem_ctrls.dram.rank0.preBackEnergy 130987714080                       # Energy for precharge background per rank (pJ)
system.mem_ctrls.dram.rank0.actPowerDownEnergy            0                       # Energy for active power-down per rank (pJ)
system.mem_ctrls.dram.rank0.prePowerDownEnergy            0                       # Energy for precharge power-down per rank (pJ)
system.mem_ctrls.dram.rank0.selfRefreshEnergy            0                       # Energy for self refresh per rank (pJ)
system.mem_ctrls.dram.rank0.totalEnergy  389883167850                       # Total energy per rank (pJ)
system.mem_ctrls.dram.rank0.averagePower   552.593866                       # Core power per rank (mW)
system.mem_ctrls.dram.rank0.totalIdleTime            0                       # Total Idle time Per DRAM Rank
system.mem_ctrls.dram.rank0.pwrStateTime::IDLE 336022990000                       # Time in different power states
system.mem_ctrls.dram.rank0.pwrStateTime::REF  23559640000                       # Time in different power states
system.mem_ctrls.dram.rank0.pwrStateTime::SREF            0                       # Time in different power states
system.mem_ctrls.dram.rank0.pwrStateTime::PRE_PDN            0                       # Time in different power states
system.mem_ctrls.dram.rank0.pwrStateTime::ACT 345968394000                       # Time in different power states
system.mem_ctrls.dram.rank0.pwrStateTime::ACT_PDN            0                       # Time in different power states
system.mem_ctrls.dram.rank1.actEnergy      2941565760                       # Energy for activate commands per rank (pJ)
system.mem_ctrls.dram.rank1.preEnergy      1563479280                       # Energy for precharge commands per rank (pJ)
system.mem_ctrls.dram.rank1.readEnergy    18789416940                       # Energy for read commands per rank (pJ)
system.mem_ctrls.dram.rank1.writeEnergy   13713070500                       # Energy for write commands per rank (pJ)
system.mem_ctrls.dram.rank1.refreshEnergy 55694988960.000008                       # Energy for refresh commands per rank (pJ)
system.mem_ctrls.dram.rank1.actBackEnergy 166154476170                       # Energy for active background per rank (pJ)
system.mem_ctrls.dram.rank1.preBackEnergy 131012034720                       # Energy for precharge background per rank (pJ)
system.mem_ctrls.dram.rank1.actPowerDownEnergy            0                       # Energy for active power-down per rank (pJ)
system.mem_ctrls.dram.rank1.prePowerDownEnergy            0                       # Energy for precharge power-down per rank (pJ)
system.mem_ctrls.dram.rank1.selfRefreshEnergy            0                       # Energy for self refresh per rank (pJ)
system.mem_ctrls.dram.rank1.totalEnergy  389869032330                       # Total energy per rank (pJ)
system.mem_ctrls.dram.rank1.averagePower   552.573831                       # Core power per rank (mW)
system.mem_ctrls.dram.rank1.totalIdleTime            0                       # Total Idle time Per DRAM Rank
system.mem_ctrls.dram.rank1.pwrStateTime::IDLE 336087463750                       # Time in different power states
system.mem_ctrls.dram.rank1.pwrStateTime::REF  23559640000                       # Time in different power states
system.mem_ctrls.dram.rank1.pwrStateTime::SREF            0                       # Time in different power states
system.mem_ctrls.dram.rank1.pwrStateTime::PRE_PDN            0                       # Time in different power states
system.mem_ctrls.dram.rank1.pwrStateTime::ACT 345903920250                       # Time in different power states
system.mem_ctrls.dram.rank1.pwrStateTime::ACT_PDN            0                       # Time in different power states
system.mem_ctrls.power_state.pwrStateResidencyTicks::UNDEFINED 705551024000                       # Cumulative time (in ticks) in various power states
system.membus.trans_dist::ReadResp                869                       # Transaction distribution
system.membus.trans_dist::WritebackDirty      5254860                       # Transaction distribution
system.membus.trans_dist::CleanEvict              222                       # Transaction distribution
system.membus.trans_dist::ReadExReq           5263023                       # Transaction distribution
system.membus.trans_dist::ReadExResp          5263023                       # Transaction distribution
system.membus.trans_dist::ReadSharedReq           869                       # Transaction distribution
system.membus.pkt_count_system.l2.mem_side_port::system.mem_ctrls.port     15782866                       # Packet count per connected requestor and responder (bytes)
system.membus.pkt_count::total               15782866                       # Packet count per connected requestor and responder (bytes)
system.membus.pkt_size_system.l2.mem_side_port::system.mem_ctrls.port    673200128                       # Cumulative packet size per connected requestor and responder (bytes)
system.membus.pkt_size::total               673200128                       # Cumulative packet size per connected requestor and responder (bytes)
system.membus.snoops                                0                       # Total snoops (count)
system.membus.snoopTraffic                          0                       # Total snoop traffic (bytes)
system.membus.snoop_fanout::samples           5263892                       # Request fanout histogram
system.membus.snoop_fanout::mean                    0                       # Request fanout histogram
system.membus.snoop_fanout::stdev                   0                       # Request fanout histogram
system.membus.snoop_fanout::underflows              0      0.00%      0.00% # Request fanout histogram
system.membus.snoop_fanout::0                 5263892    100.00%    100.00% # Request fanout histogram
system.membus.snoop_fanout::1                       0      0.00%    100.00% # Request fanout histogram
system.membus.snoop_fanout::overflows               0      0.00%    100.00% # Request fanout histogram
system.membus.snoop_fanout::min_value               0                       # Request fanout histogram
system.membus.snoop_fanout::max_value               0                       # Request fanout histogram
system.membus.snoop_fanout::total             5263892                       # Request fanout histogram
system.membus.power_state.pwrStateResidencyTicks::UNDEFINED 705551024000                       # Cumulative time (in ticks) in various power states
system.membus.reqLayer0.occupancy         31538414000                       # Layer occupancy (ticks)
system.membus.reqLayer0.utilization               4.5                       # Layer utilization (%)
system.membus.respLayer1.occupancy        27697620750                       # Layer occupancy (ticks)
system.membus.respLayer1.utilization              3.9                       # Layer utilization (%)
system.tol2bus.trans_dist::ReadResp               944                       # Transaction distribution
system.tol2bus.trans_dist::WritebackDirty     10516914                       # Transaction distribution
system.tol2bus.trans_dist::WritebackClean            3                       # Transaction distribution
system.tol2bus.trans_dist::CleanEvict            1133                       # Transaction distribution
system.tol2bus.trans_dist::ReadExReq          5263037                       # Transaction distribution
system.tol2bus.trans_dist::ReadExResp         5263036                       # Transaction distribution
system.tol2bus.trans_dist::ReadCleanReq           609                       # Transaction distribution
system.tol2bus.trans_dist::ReadSharedReq          335                       # Transaction distribution
system.tol2bus.pkt_count_system.cpu.icache.mem_side_port::system.l2.cpu_side_port         1221                       # Packet count per connected requestor and responder (bytes)
system.tol2bus.pkt_count_system.cpu.dcache.mem_side_port::system.l2.cpu_side_port     15789090                       # Packet count per connected requestor and responder (bytes)
system.tol2bus.pkt_count::total              15790311                       # Packet count per connected requestor and responder (bytes)
system.tol2bus.pkt_size_system.cpu.icache.mem_side_port::system.l2.cpu_side_port        39168                       # Cumulative packet size per connected requestor and responder (bytes)
system.tol2bus.pkt_size_system.cpu.dcache.mem_side_port::system.l2.cpu_side_port    673627200                       # Cumulative packet size per connected requestor and responder (bytes)
system.tol2bus.pkt_size::total              673666368                       # Cumulative packet size per connected requestor and responder (bytes)
system.tol2bus.snoops                         5255700                       # Total snoops (count)
system.tol2bus.snoopTraffic                 336311040                       # Total snoop traffic (bytes)
system.tol2bus.snoop_fanout::samples         10519681                       # Request fanout histogram
system.tol2bus.snoop_fanout::mean            0.000064                       # Request fanout histogram
system.tol2bus.snoop_fanout::stdev           0.008010                       # Request fanout histogram
system.tol2bus.snoop_fanout::underflows             0      0.00%      0.00% # Request fanout histogram
system.tol2bus.snoop_fanout::0               10519006     99.99%     99.99% # Request fanout histogram
system.tol2bus.snoop_fanout::1                    675      0.01%    100.00% # Request fanout histogram
system.tol2bus.snoop_fanout::2                      0      0.00%    100.00% # Request fanout histogram
system.tol2bus.snoop_fanout::overflows              0      0.00%    100.00% # Request fanout histogram
system.tol2bus.snoop_fanout::min_value              0                       # Request fanout histogram
system.tol2bus.snoop_fanout::max_value              1                       # Request fanout histogram
system.tol2bus.snoop_fanout::total           10519681                       # Request fanout histogram
system.tol2bus.power_state.pwrStateResidencyTicks::UNDEFINED 705551024000                       # Cumulative time (in ticks) in various power states
system.tol2bus.reqLayer0.occupancy        21050445000                       # Layer occupancy (ticks)
system.tol2bus.reqLayer0.utilization              3.0                       # Layer utilization (%)
system.tol2bus.respLayer0.occupancy           1827999                       # Layer occupancy (ticks)
system.tol2bus.respLayer0.utilization             0.0                       # Layer utilization (%)
system.tol2bus.respLayer1.occupancy       15790119993                       # Layer occupancy (ticks)
system.tol2bus.respLayer1.utilization             2.2                       # Layer utilization (%)
system.voltage_domain.voltage                       1                       # Voltage in Volts

---------- End Simulation Statistics   ----------
